*
*
*
*                       LINUX           Wed Apr 29 04:53:02 2026
*
*
*
*  PROGRAM  advgen
*
*  Name           : advgen - Quantus - (64-bit)
*  Version        : 24.1.0-p089
*  Build Date     : Wed Dec 18 09:06:09 PST 2024
*
*  HSPICE LIBRARY
*
* GLOBAL_TEMPERATURE 27
*  OPERATING_TEMPERATURE 25
*  QRC_TECH_DIR /opt/pdk/ams/410/assura/c35b4/c35b4c3/RCX-typical 
*
*!LENGTH_UNITS METERS
*
*
*
*
*       SUBCIRCUIT DEFINITIONS
*
.SUBCKT cvar#20auLvs#20PRIMLIB G B S
.ENDS
*

*
.SUBCKT opamp_ws_f BIAS GNDA INN INP OUT VDDA
*
*
*  caps2d version: 11
*
*       SUBCIRCUIT CALLS
*
XavD85_1 VDDA#136 GNDA#537 GNDA#616 cvar#20auLvs#20PRIMLIB
+ w=0.0004752 row=6 l=6.5e-07 col=12
XC0(0)/avD85_1 VDDA#133 GNDA#346 GNDA#616 cvar#20auLvs#20PRIMLIB
+ w=0.0009504 row=12 l=6.5e-07 col=12
XC0(1)/avD85_1 VDDA#134 GNDA#368 GNDA#616 cvar#20auLvs#20PRIMLIB
+ w=0.0009504 row=12 l=6.5e-07 col=12
XC0(2)/avD85_1 VDDA#135 GNDA#374 GNDA#616 cvar#20auLvs#20PRIMLIB
+ w=0.0009504 row=12 l=6.5e-07 col=12
*
*       TRANSISTOR CARDS
*
*
MavI54/avI52/avD1_1	GNDA#338	GNDA#63	GNDA#318
+ GNDA#616	nmos4#20auLvs#20PRIMLIB	L=1e-05	W=5e-06
+ AD=4.25e-12	AS=4.25e-12	PD=6.7e-06	PS=6.7e-06	wtot=5e-06
MavI54/avI51/avD1_1	OUT#81	avC7#82	GNDA#194	GNDA#616
+ nmos4#20auLvs#20PRIMLIB	L=1e-05	W=5e-06
+ AD=4.25e-12	AS=4.25e-12	PD=6.7e-06	PS=6.7e-06	wtot=5e-06
MavI54/avI50/avD1_1	OUT#73	avC7#74	GNDA#186	GNDA#616
+ nmos4#20auLvs#20PRIMLIB	L=1e-05	W=5e-06
+ AD=4.25e-12	AS=4.25e-12	PD=6.7e-06	PS=6.7e-06	wtot=5e-06
MavI54/avI49/avD1_1	OUT#69	avC7#66	GNDA#178	GNDA#616
+ nmos4#20auLvs#20PRIMLIB	L=1e-05	W=5e-06
+ AD=4.25e-12	AS=4.25e-12	PD=6.7e-06	PS=6.7e-06	wtot=5e-06
MavI54/avI48/avD1_1	OUT#61	avC7#58	GNDA#170	GNDA#616
+ nmos4#20auLvs#20PRIMLIB	L=1e-05	W=5e-06
+ AD=4.25e-12	AS=4.25e-12	PD=6.7e-06	PS=6.7e-06	wtot=5e-06
MavI54/avI47/avD1_1	OUT#53	avC7#50	GNDA#162	GNDA#616
+ nmos4#20auLvs#20PRIMLIB	L=1e-05	W=5e-06
+ AD=4.25e-12	AS=4.25e-12	PD=6.7e-06	PS=6.7e-06	wtot=5e-06
MavI54/avI46/avD1_1	OUT#45	avC7#42	GNDA#154	GNDA#616
+ nmos4#20auLvs#20PRIMLIB	L=1e-05	W=5e-06
+ AD=4.25e-12	AS=4.25e-12	PD=6.7e-06	PS=6.7e-06	wtot=5e-06
MavI54/avI45/avD1_1	OUT#37	avC7#34	GNDA#146	GNDA#616
+ nmos4#20auLvs#20PRIMLIB	L=1e-05	W=5e-06
+ AD=4.25e-12	AS=4.25e-12	PD=6.7e-06	PS=6.7e-06	wtot=5e-06
MavI54/avI44/avD1_1	OUT#29	avC7#26	GNDA#138	GNDA#616
+ nmos4#20auLvs#20PRIMLIB	L=1e-05	W=5e-06
+ AD=4.25e-12	AS=4.25e-12	PD=6.7e-06	PS=6.7e-06	wtot=5e-06
MavI54/avI43/avD1_1	OUT#25	avC7#18	GNDA#130	GNDA#616
+ nmos4#20auLvs#20PRIMLIB	L=1e-05	W=5e-06
+ AD=4.25e-12	AS=4.25e-12	PD=6.7e-06	PS=6.7e-06	wtot=5e-06
MavI54/avI42/avD1_1	OUT#17	avC7#10	GNDA#122	GNDA#616
+ nmos4#20auLvs#20PRIMLIB	L=1e-05	W=5e-06
+ AD=4.25e-12	AS=4.25e-12	PD=6.7e-06	PS=6.7e-06	wtot=5e-06
MavI54/avI41/avD1_1	OUT#9	avC7#2	GNDA#108	GNDA#616
+ nmos4#20auLvs#20PRIMLIB	L=1e-05	W=5e-06
+ AD=4.25e-12	AS=4.25e-12	PD=6.7e-06	PS=6.7e-06	wtot=5e-06
MavI54/avI40/avD1_1	GNDA#95	GNDA#4	GNDA#77	GNDA#616
+ nmos4#20auLvs#20PRIMLIB	L=1e-05	W=5e-06
+ AD=4.25e-12	AS=4.25e-12	PD=6.7e-06	PS=6.7e-06	wtot=5e-06
MavI54/avI39/avD1_1	GNDA#340	GNDA#65	GNDA#320
+ GNDA#616	nmos4#20auLvs#20PRIMLIB	L=1e-05	W=5e-06
+ AD=4.25e-12	AS=4.25e-12	PD=6.7e-06	PS=6.7e-06	wtot=5e-06
MavI54/avI38/avD1_1	OUT#83	avC7#84	GNDA#210	GNDA#616
+ nmos4#20auLvs#20PRIMLIB	L=1e-05	W=5e-06
+ AD=4.25e-12	AS=4.25e-12	PD=6.7e-06	PS=6.7e-06	wtot=5e-06
MavI54/avI37/avD1_1	OUT#75	avC7#76	GNDA#211	GNDA#616
+ nmos4#20auLvs#20PRIMLIB	L=1e-05	W=5e-06
+ AD=4.25e-12	AS=4.25e-12	PD=6.7e-06	PS=6.7e-06	wtot=5e-06
MavI54/avI36/avD1_1	avC197#7	avC7#68	GNDA#212
+ GNDA#616	nmos4#20auLvs#20PRIMLIB	L=1e-05	W=5e-06
+ AD=4.25e-12	AS=4.25e-12	PD=6.7e-06	PS=6.7e-06	wtot=5e-06
MavI54/avI35/avD1_1	OUT#63	avC7#60	GNDA#213	GNDA#616
+ nmos4#20auLvs#20PRIMLIB	L=1e-05	W=5e-06
+ AD=4.25e-12	AS=4.25e-12	PD=6.7e-06	PS=6.7e-06	wtot=5e-06
MavI54/avI34/avD1_1	OUT#55	avC7#52	GNDA#214	GNDA#616
+ nmos4#20auLvs#20PRIMLIB	L=1e-05	W=5e-06
+ AD=4.25e-12	AS=4.25e-12	PD=6.7e-06	PS=6.7e-06	wtot=5e-06
MavI54/avI33/avD1_1	OUT#47	avC7#44	GNDA#217	GNDA#616
+ nmos4#20auLvs#20PRIMLIB	L=1e-05	W=5e-06
+ AD=4.25e-12	AS=4.25e-12	PD=6.7e-06	PS=6.7e-06	wtot=5e-06
MavI54/avI32/avD1_1	OUT#39	avC7#36	GNDA#220	GNDA#616
+ nmos4#20auLvs#20PRIMLIB	L=1e-05	W=5e-06
+ AD=4.25e-12	AS=4.25e-12	PD=6.7e-06	PS=6.7e-06	wtot=5e-06
MavI54/avI31/avD1_1	OUT#31	avC7#28	GNDA#224	GNDA#616
+ nmos4#20auLvs#20PRIMLIB	L=1e-05	W=5e-06
+ AD=4.25e-12	AS=4.25e-12	PD=6.7e-06	PS=6.7e-06	wtot=5e-06
MavI54/avI30/avD1_1	avC7#117	avC7#20	GNDA#228
+ GNDA#616	nmos4#20auLvs#20PRIMLIB	L=1e-05	W=5e-06
+ AD=4.25e-12	AS=4.25e-12	PD=6.7e-06	PS=6.7e-06	wtot=5e-06
MavI54/avI29/avD1_1	OUT#19	avC7#12	GNDA#232	GNDA#616
+ nmos4#20auLvs#20PRIMLIB	L=1e-05	W=5e-06
+ AD=4.25e-12	AS=4.25e-12	PD=6.7e-06	PS=6.7e-06	wtot=5e-06
MavI54/avI28/avD1_1	OUT#11	avC7#4	GNDA#110	GNDA#616
+ nmos4#20auLvs#20PRIMLIB	L=1e-05	W=5e-06
+ AD=4.25e-12	AS=4.25e-12	PD=6.7e-06	PS=6.7e-06	wtot=5e-06
MavI54/avI27/avD1_1	GNDA#97	GNDA#6	GNDA#79	GNDA#616
+ nmos4#20auLvs#20PRIMLIB	L=1e-05	W=5e-06
+ AD=4.25e-12	AS=4.25e-12	PD=6.7e-06	PS=6.7e-06	wtot=5e-06
MavI54/avI26/avD1_1	GNDA#342	GNDA#67	GNDA#322
+ GNDA#616	nmos4#20auLvs#20PRIMLIB	L=1e-05	W=5e-06
+ AD=4.25e-12	AS=4.25e-12	PD=6.7e-06	PS=6.7e-06	wtot=5e-06
MavI54/avI25/avD1_1	OUT#85	avC7#86	GNDA#249	GNDA#616
+ nmos4#20auLvs#20PRIMLIB	L=1e-05	W=5e-06
+ AD=4.25e-12	AS=4.25e-12	PD=6.7e-06	PS=6.7e-06	wtot=5e-06
MavI54/avI24/avD1_1	OUT#77	avC7#78	GNDA#250	GNDA#616
+ nmos4#20auLvs#20PRIMLIB	L=1e-05	W=5e-06
+ AD=4.25e-12	AS=4.25e-12	PD=6.7e-06	PS=6.7e-06	wtot=5e-06
MavI54/avI23/avD1_1	avC7#167	avC7#70	GNDA#251
+ GNDA#616	nmos4#20auLvs#20PRIMLIB	L=1e-05	W=5e-06
+ AD=4.25e-12	AS=4.25e-12	PD=6.7e-06	PS=6.7e-06	wtot=5e-06
MavI54/avI22/avD1_1	OUT#65	avC7#62	GNDA#252	GNDA#616
+ nmos4#20auLvs#20PRIMLIB	L=1e-05	W=5e-06
+ AD=4.25e-12	AS=4.25e-12	PD=6.7e-06	PS=6.7e-06	wtot=5e-06
MavI54/avI21/avD1_1	OUT#57	avC7#54	GNDA#253	GNDA#616
+ nmos4#20auLvs#20PRIMLIB	L=1e-05	W=5e-06
+ AD=4.25e-12	AS=4.25e-12	PD=6.7e-06	PS=6.7e-06	wtot=5e-06
MavI54/avI20/avD1_1	OUT#49	avC7#46	GNDA#256	GNDA#616
+ nmos4#20auLvs#20PRIMLIB	L=1e-05	W=5e-06
+ AD=4.25e-12	AS=4.25e-12	PD=6.7e-06	PS=6.7e-06	wtot=5e-06
MavI54/avI19/avD1_1	OUT#41	avC7#38	GNDA#259	GNDA#616
+ nmos4#20auLvs#20PRIMLIB	L=1e-05	W=5e-06
+ AD=4.25e-12	AS=4.25e-12	PD=6.7e-06	PS=6.7e-06	wtot=5e-06
MavI54/avI18/avD1_1	OUT#33	avC7#30	GNDA#263	GNDA#616
+ nmos4#20auLvs#20PRIMLIB	L=1e-05	W=5e-06
+ AD=4.25e-12	AS=4.25e-12	PD=6.7e-06	PS=6.7e-06	wtot=5e-06
MavI54/avI17/avD1_1	avC197#5	avC7#22	GNDA#267
+ GNDA#616	nmos4#20auLvs#20PRIMLIB	L=1e-05	W=5e-06
+ AD=4.25e-12	AS=4.25e-12	PD=6.7e-06	PS=6.7e-06	wtot=5e-06
MavI54/avI16/avD1_1	OUT#21	avC7#14	GNDA#271	GNDA#616
+ nmos4#20auLvs#20PRIMLIB	L=1e-05	W=5e-06
+ AD=4.25e-12	AS=4.25e-12	PD=6.7e-06	PS=6.7e-06	wtot=5e-06
MavI54/avI15/avD1_1	OUT#13	avC7#6	GNDA#112	GNDA#616
+ nmos4#20auLvs#20PRIMLIB	L=1e-05	W=5e-06
+ AD=4.25e-12	AS=4.25e-12	PD=6.7e-06	PS=6.7e-06	wtot=5e-06
MavI54/avI14/avD1_1	GNDA#99	GNDA#8	GNDA#81	GNDA#616
+ nmos4#20auLvs#20PRIMLIB	L=1e-05	W=5e-06
+ AD=4.25e-12	AS=4.25e-12	PD=6.7e-06	PS=6.7e-06	wtot=5e-06
MavI54/avI13/avD1_1	GNDA#344	GNDA#69	GNDA#324
+ GNDA#616	nmos4#20auLvs#20PRIMLIB	L=1e-05	W=5e-06
+ AD=4.25e-12	AS=4.25e-12	PD=6.7e-06	PS=6.7e-06	wtot=5e-06
MavI54/avI12/avD1_1	OUT#87	avC7#88	GNDA#288	GNDA#616
+ nmos4#20auLvs#20PRIMLIB	L=1e-05	W=5e-06
+ AD=4.25e-12	AS=4.25e-12	PD=6.7e-06	PS=6.7e-06	wtot=5e-06
MavI54/avI11/avD1_1	OUT#79	avC7#80	GNDA#289	GNDA#616
+ nmos4#20auLvs#20PRIMLIB	L=1e-05	W=5e-06
+ AD=4.25e-12	AS=4.25e-12	PD=6.7e-06	PS=6.7e-06	wtot=5e-06
MavI54/avI10/avD1_1	OUT#71	avC7#72	GNDA#290	GNDA#616
+ nmos4#20auLvs#20PRIMLIB	L=1e-05	W=5e-06
+ AD=4.25e-12	AS=4.25e-12	PD=6.7e-06	PS=6.7e-06	wtot=5e-06
MavI54/avI9/avD1_1	OUT#67	avC7#64	GNDA#291	GNDA#616
+ nmos4#20auLvs#20PRIMLIB	L=1e-05	W=5e-06
+ AD=4.25e-12	AS=4.25e-12	PD=6.7e-06	PS=6.7e-06	wtot=5e-06
MavI54/avI8/avD1_1	OUT#59	avC7#56	GNDA#292	GNDA#616
+ nmos4#20auLvs#20PRIMLIB	L=1e-05	W=5e-06
+ AD=4.25e-12	AS=4.25e-12	PD=6.7e-06	PS=6.7e-06	wtot=5e-06
MavI54/avI7/avD1_1	OUT#51	avC7#48	GNDA#295	GNDA#616
+ nmos4#20auLvs#20PRIMLIB	L=1e-05	W=5e-06
+ AD=4.25e-12	AS=4.25e-12	PD=6.7e-06	PS=6.7e-06	wtot=5e-06
MavI54/avI6/avD1_1	OUT#43	avC7#40	GNDA#298	GNDA#616
+ nmos4#20auLvs#20PRIMLIB	L=1e-05	W=5e-06
+ AD=4.25e-12	AS=4.25e-12	PD=6.7e-06	PS=6.7e-06	wtot=5e-06
MavI54/avI5/avD1_1	OUT#35	avC7#32	GNDA#302	GNDA#616
+ nmos4#20auLvs#20PRIMLIB	L=1e-05	W=5e-06
+ AD=4.25e-12	AS=4.25e-12	PD=6.7e-06	PS=6.7e-06	wtot=5e-06
MavI54/avI4/avD1_1	OUT#27	avC7#24	GNDA#306	GNDA#616
+ nmos4#20auLvs#20PRIMLIB	L=1e-05	W=5e-06
+ AD=4.25e-12	AS=4.25e-12	PD=6.7e-06	PS=6.7e-06	wtot=5e-06
MavI54/avI3/avD1_1	OUT#23	avC7#16	GNDA#310	GNDA#616
+ nmos4#20auLvs#20PRIMLIB	L=1e-05	W=5e-06
+ AD=4.25e-12	AS=4.25e-12	PD=6.7e-06	PS=6.7e-06	wtot=5e-06
MavI54/avI2/avD1_1	OUT#15	avC7#8	GNDA#114	GNDA#616
+ nmos4#20auLvs#20PRIMLIB	L=1e-05	W=5e-06
+ AD=4.25e-12	AS=4.25e-12	PD=6.7e-06	PS=6.7e-06	wtot=5e-06
MavI54/avI1/avD1_1	GNDA#101	GNDA#10	GNDA#83
+ GNDA#616	nmos4#20auLvs#20PRIMLIB	L=1e-05	W=5e-06
+ AD=4.25e-12	AS=4.25e-12	PD=6.7e-06	PS=6.7e-06	wtot=5e-06
MMN6/avD1_1	avC197	BIAS#7	avC198	GNDA#616	nmos4#20auLvs#20PRIMLIB
+ L=1e-06	W=5e-06
+ AD=4.25e-12	AS=2.5e-12	PD=6.7e-06	PS=1e-06
+ wtot=5e-06
MMN6/avD1_2	avC198	BIAS#5	avC197#3	GNDA#616
+ nmos4#20auLvs#20PRIMLIB	L=1e-06	W=5e-06
+ AD=2.5e-12	AS=4.25e-12	PD=1e-06	PS=6.7e-06	wtot=5e-06
MMN5/avD1_1	avC7#89	BIAS#3	BIAS#12	GNDA#616
+ nmos4#20auLvs#20PRIMLIB	L=1e-06	W=5e-06
+ AD=4.25e-12	AS=2.5e-12	PD=6.7e-06	PS=1e-06	wtot=5e-06
MMN5/avD1_2	BIAS#12	BIAS#1	avC7#91	GNDA#616
+ nmos4#20auLvs#20PRIMLIB	L=1e-06	W=5e-06
+ AD=2.5e-12	AS=4.25e-12	PD=1e-06	PS=6.7e-06	wtot=5e-06
MMN8(3)/avD1_1	GNDA#594	GNDA#72	GNDA#714	GNDA#616
+ nmos4#20auLvs#20PRIMLIB	L=5e-06	W=2.5e-05
+ AD=2.125e-11	AS=2.125e-11	PD=2.67e-05	PS=2.67e-05	wtot=2.5e-05
MMN0(15)/avD1_1	avC9#60	INP#32	avC198#93	GNDA#616
+ nmos4#20auLvs#20PRIMLIB	L=5e-06	W=2.5e-05
+ AD=2.125e-11	AS=2.125e-11	PD=2.67e-05	PS=2.67e-05	wtot=2.5e-05
MMN1(15)/avD1_1	avC8#55	INN#30	avC198#87	GNDA#616
+ nmos4#20auLvs#20PRIMLIB	L=5e-06	W=2.5e-05
+ AD=2.125e-11	AS=2.125e-11	PD=2.67e-05	PS=2.67e-05	wtot=2.5e-05
MMN0(14)/avD1_1	avC9#54	INP#28	avC198#81	GNDA#616
+ nmos4#20auLvs#20PRIMLIB	L=5e-06	W=2.5e-05
+ AD=2.125e-11	AS=2.125e-11	PD=2.67e-05	PS=2.67e-05	wtot=2.5e-05
MMN1(14)/avD1_1	avC8#49	INN#26	avC198#75	GNDA#616
+ nmos4#20auLvs#20PRIMLIB	L=5e-06	W=2.5e-05
+ AD=2.125e-11	AS=2.125e-11	PD=2.67e-05	PS=2.67e-05	wtot=2.5e-05
MMN0(13)/avD1_1	avC9#48	INP#24	avC198#69	GNDA#616
+ nmos4#20auLvs#20PRIMLIB	L=5e-06	W=2.5e-05
+ AD=2.125e-11	AS=2.125e-11	PD=2.67e-05	PS=2.67e-05	wtot=2.5e-05
MMN1(13)/avD1_1	avC8#43	INN#22	avC198#63	GNDA#616
+ nmos4#20auLvs#20PRIMLIB	L=5e-06	W=2.5e-05
+ AD=2.125e-11	AS=2.125e-11	PD=2.67e-05	PS=2.67e-05	wtot=2.5e-05
MMN0(12)/avD1_1	avC9#42	INP#20	avC198#57	GNDA#616
+ nmos4#20auLvs#20PRIMLIB	L=5e-06	W=2.5e-05
+ AD=2.125e-11	AS=2.125e-11	PD=2.67e-05	PS=2.67e-05	wtot=2.5e-05
MMN1(12)/avD1_1	avC8#37	INN#18	avC198#51	GNDA#616
+ nmos4#20auLvs#20PRIMLIB	L=5e-06	W=2.5e-05
+ AD=2.125e-11	AS=2.125e-11	PD=2.67e-05	PS=2.67e-05	wtot=2.5e-05
MMN0(11)/avD1_1	avC9#36	INP#16	avC198#45	GNDA#616
+ nmos4#20auLvs#20PRIMLIB	L=5e-06	W=2.5e-05
+ AD=2.125e-11	AS=2.125e-11	PD=2.67e-05	PS=2.67e-05	wtot=2.5e-05
MMN0(10)/avD1_1	avC9#33	INP#14	avC198#39	GNDA#616
+ nmos4#20auLvs#20PRIMLIB	L=5e-06	W=2.5e-05
+ AD=2.125e-11	AS=2.125e-11	PD=2.67e-05	PS=2.67e-05	wtot=2.5e-05
MMN1(11)/avD1_1	avC8#28	INN#12	avC198#33	GNDA#616
+ nmos4#20auLvs#20PRIMLIB	L=5e-06	W=2.5e-05
+ AD=2.125e-11	AS=2.125e-11	PD=2.67e-05	PS=2.67e-05	wtot=2.5e-05
MMN0(9)/avD1_1	avC9#27	INP#10	avC198#27	GNDA#616
+ nmos4#20auLvs#20PRIMLIB	L=5e-06	W=2.5e-05
+ AD=2.125e-11	AS=2.125e-11	PD=2.67e-05	PS=2.67e-05	wtot=2.5e-05
MMN1(10)/avD1_1	avC8#22	INN#8	avC198#21	GNDA#616
+ nmos4#20auLvs#20PRIMLIB	L=5e-06	W=2.5e-05
+ AD=2.125e-11	AS=2.125e-11	PD=2.67e-05	PS=2.67e-05	wtot=2.5e-05
MMN0(8)/avD1_1	avC9#21	INP#6	avC198#15	GNDA#616
+ nmos4#20auLvs#20PRIMLIB	L=5e-06	W=2.5e-05
+ AD=2.125e-11	AS=2.125e-11	PD=2.67e-05	PS=2.67e-05	wtot=2.5e-05
MMN1(9)/avD1_1	avC8#16	INN#4	avC198#9	GNDA#616
+ nmos4#20auLvs#20PRIMLIB	L=5e-06	W=2.5e-05
+ AD=2.125e-11	AS=2.125e-11	PD=2.67e-05	PS=2.67e-05	wtot=2.5e-05
MMN0(7)/avD1_1	avC9#15	INP#2	avC198#3	GNDA#616
+ nmos4#20auLvs#20PRIMLIB	L=5e-06	W=2.5e-05
+ AD=2.125e-11	AS=2.125e-11	PD=2.67e-05	PS=2.67e-05	wtot=2.5e-05
MMN8(2)/avD1_1	GNDA#712	GNDA#21	GNDA#592	GNDA#616
+ nmos4#20auLvs#20PRIMLIB	L=5e-06	W=2.5e-05
+ AD=2.125e-11	AS=2.125e-11	PD=2.67e-05	PS=2.67e-05	wtot=2.5e-05
MMN8(1)/avD1_1	GNDA#645	GNDA#74	GNDA#716	GNDA#616
+ nmos4#20auLvs#20PRIMLIB	L=5e-06	W=2.5e-05
+ AD=2.125e-11	AS=2.125e-11	PD=2.67e-05	PS=2.67e-05	wtot=2.5e-05
MMN1(8)/avD1_1	avC8#58	INN#32	avC198#96	GNDA#616
+ nmos4#20auLvs#20PRIMLIB	L=5e-06	W=2.5e-05
+ AD=2.125e-11	AS=2.125e-11	PD=2.67e-05	PS=2.67e-05	wtot=2.5e-05
MMN0(6)/avD1_1	avC9#57	INP#30	avC198#90	GNDA#616
+ nmos4#20auLvs#20PRIMLIB	L=5e-06	W=2.5e-05
+ AD=2.125e-11	AS=2.125e-11	PD=2.67e-05	PS=2.67e-05	wtot=2.5e-05
MMN1(7)/avD1_1	avC8#52	INN#28	avC198#84	GNDA#616
+ nmos4#20auLvs#20PRIMLIB	L=5e-06	W=2.5e-05
+ AD=2.125e-11	AS=2.125e-11	PD=2.67e-05	PS=2.67e-05	wtot=2.5e-05
MMN0(5)/avD1_1	avC9#51	INP#26	avC198#78	GNDA#616
+ nmos4#20auLvs#20PRIMLIB	L=5e-06	W=2.5e-05
+ AD=2.125e-11	AS=2.125e-11	PD=2.67e-05	PS=2.67e-05	wtot=2.5e-05
MMN1(6)/avD1_1	avC8#46	INN#24	avC198#72	GNDA#616
+ nmos4#20auLvs#20PRIMLIB	L=5e-06	W=2.5e-05
+ AD=2.125e-11	AS=2.125e-11	PD=2.67e-05	PS=2.67e-05	wtot=2.5e-05
MMN0(4)/avD1_1	avC9#45	INP#22	avC198#66	GNDA#616
+ nmos4#20auLvs#20PRIMLIB	L=5e-06	W=2.5e-05
+ AD=2.125e-11	AS=2.125e-11	PD=2.67e-05	PS=2.67e-05	wtot=2.5e-05
MMN1(5)/avD1_1	avC8#40	INN#20	avC198#60	GNDA#616
+ nmos4#20auLvs#20PRIMLIB	L=5e-06	W=2.5e-05
+ AD=2.125e-11	AS=2.125e-11	PD=2.67e-05	PS=2.67e-05	wtot=2.5e-05
MMN0(3)/avD1_1	avC9#39	INP#18	avC198#54	GNDA#616
+ nmos4#20auLvs#20PRIMLIB	L=5e-06	W=2.5e-05
+ AD=2.125e-11	AS=2.125e-11	PD=2.67e-05	PS=2.67e-05	wtot=2.5e-05
MMN1(4)/avD1_1	avC8#34	INN#16	avC198#48	GNDA#616
+ nmos4#20auLvs#20PRIMLIB	L=5e-06	W=2.5e-05
+ AD=2.125e-11	AS=2.125e-11	PD=2.67e-05	PS=2.67e-05	wtot=2.5e-05
MMN1(3)/avD1_1	avC8#31	INN#14	avC198#42	GNDA#616
+ nmos4#20auLvs#20PRIMLIB	L=5e-06	W=2.5e-05
+ AD=2.125e-11	AS=2.125e-11	PD=2.67e-05	PS=2.67e-05	wtot=2.5e-05
MMN0(2)/avD1_1	avC9#30	INP#12	avC198#36	GNDA#616
+ nmos4#20auLvs#20PRIMLIB	L=5e-06	W=2.5e-05
+ AD=2.125e-11	AS=2.125e-11	PD=2.67e-05	PS=2.67e-05	wtot=2.5e-05
MMN1(2)/avD1_1	avC8#25	INN#10	avC198#30	GNDA#616
+ nmos4#20auLvs#20PRIMLIB	L=5e-06	W=2.5e-05
+ AD=2.125e-11	AS=2.125e-11	PD=2.67e-05	PS=2.67e-05	wtot=2.5e-05
MMN0(1)/avD1_1	avC9#24	INP#8	avC198#24	GNDA#616
+ nmos4#20auLvs#20PRIMLIB	L=5e-06	W=2.5e-05
+ AD=2.125e-11	AS=2.125e-11	PD=2.67e-05	PS=2.67e-05	wtot=2.5e-05
MMN1(1)/avD1_1	avC8#19	INN#6	avC198#18	GNDA#616
+ nmos4#20auLvs#20PRIMLIB	L=5e-06	W=2.5e-05
+ AD=2.125e-11	AS=2.125e-11	PD=2.67e-05	PS=2.67e-05	wtot=2.5e-05
MMN0(0)/avD1_1	avC9#18	INP#4	avC198#12	GNDA#616
+ nmos4#20auLvs#20PRIMLIB	L=5e-06	W=2.5e-05
+ AD=2.125e-11	AS=2.125e-11	PD=2.67e-05	PS=2.67e-05	wtot=2.5e-05
MMN1(0)/avD1_1	avC8#13	INN#2	avC198#6	GNDA#616
+ nmos4#20auLvs#20PRIMLIB	L=5e-06	W=2.5e-05
+ AD=2.125e-11	AS=2.125e-11	PD=2.67e-05	PS=2.67e-05	wtot=2.5e-05
MMN8(0)/avD1_1	GNDA#710	GNDA#23	GNDA#590	GNDA#616
+ nmos4#20auLvs#20PRIMLIB	L=5e-06	W=2.5e-05
+ AD=2.125e-11	AS=2.125e-11	PD=2.67e-05	PS=2.67e-05	wtot=2.5e-05
MavD1_1	GNDA#190	GNDA#52	GNDA#181	GNDA#616
+ nmos4#20auLvs#20PRIMLIB	L=1e-05	W=1e-06
+ AD=8.5e-13	AS=8.5e-13	PD=2.7e-06	PS=2.7e-06	wtot=1e-06
MavD1_2	GNDA#315	GNDA#56	GNDA#189	GNDA#616
+ nmos4#20auLvs#20PRIMLIB	L=1e-05	W=1e-06
+ AD=8.5e-13	AS=8.5e-13	PD=2.7e-06	PS=2.7e-06	wtot=1e-06
MavD1_3	GNDA#336	GNDA#60	GNDA#314	GNDA#616
+ nmos4#20auLvs#20PRIMLIB	L=1e-05	W=1e-06
+ AD=8.5e-13	AS=8.5e-13	PD=2.7e-06	PS=2.7e-06	wtot=1e-06
MavD1_4	GNDA#166	GNDA#40	GNDA#157	GNDA#616
+ nmos4#20auLvs#20PRIMLIB	L=1e-05	W=1e-06
+ AD=8.5e-13	AS=8.5e-13	PD=2.7e-06	PS=2.7e-06	wtot=1e-06
MavD1_5	GNDA#174	GNDA#44	GNDA#165	GNDA#616
+ nmos4#20auLvs#20PRIMLIB	L=1e-05	W=1e-06
+ AD=8.5e-13	AS=8.5e-13	PD=2.7e-06	PS=2.7e-06	wtot=1e-06
MavD1_6	GNDA#182	GNDA#48	GNDA#173	GNDA#616
+ nmos4#20auLvs#20PRIMLIB	L=1e-05	W=1e-06
+ AD=8.5e-13	AS=8.5e-13	PD=2.7e-06	PS=2.7e-06	wtot=1e-06
MavD1_7	GNDA#158	GNDA#36	GNDA#149	GNDA#616
+ nmos4#20auLvs#20PRIMLIB	L=1e-05	W=1e-06
+ AD=8.5e-13	AS=8.5e-13	PD=2.7e-06	PS=2.7e-06	wtot=1e-06
MavD1_8	GNDA#142	GNDA#28	GNDA#133	GNDA#616
+ nmos4#20auLvs#20PRIMLIB	L=1e-05	W=1e-06
+ AD=8.5e-13	AS=8.5e-13	PD=2.7e-06	PS=2.7e-06	wtot=1e-06
MavD1_9	GNDA#150	GNDA#32	GNDA#141	GNDA#616
+ nmos4#20auLvs#20PRIMLIB	L=1e-05	W=1e-06
+ AD=8.5e-13	AS=8.5e-13	PD=2.7e-06	PS=2.7e-06	wtot=1e-06
MavD1_10	GNDA#134	GNDA#24	GNDA#125	GNDA#616
+ nmos4#20auLvs#20PRIMLIB	L=1e-05	W=1e-06
+ AD=8.5e-13	AS=8.5e-13	PD=2.7e-06	PS=2.7e-06	wtot=1e-06
MavD1_11	GNDA#118	GNDA#13	GNDA#103	GNDA#616
+ nmos4#20auLvs#20PRIMLIB	L=1e-05	W=1e-06
+ AD=8.5e-13	AS=8.5e-13	PD=2.7e-06	PS=2.7e-06	wtot=1e-06
MavD1_12	GNDA#126	GNDA#17	GNDA#117	GNDA#616
+ nmos4#20auLvs#20PRIMLIB	L=1e-05	W=1e-06
+ AD=8.5e-13	AS=8.5e-13	PD=2.7e-06	PS=2.7e-06	wtot=1e-06
MavD1_13	GNDA#104	GNDA#1	GNDA#75	GNDA#616
+ nmos4#20auLvs#20PRIMLIB	L=1e-05	W=1e-06
+ AD=8.5e-13	AS=8.5e-13	PD=2.7e-06	PS=2.7e-06	wtot=1e-06
MavD1_14	GNDA#377	GNDA#70	GNDA#384	GNDA#616
+ nmos4#20auLvs#20PRIMLIB	L=1e-05	W=1e-06
+ AD=8.5e-13	AS=8.5e-13	PD=2.7e-06	PS=2.7e-06	wtot=1e-06
MavD1_15	GNDA#394	GNDA#54	GNDA#400	GNDA#616
+ nmos4#20auLvs#20PRIMLIB	L=1e-05	W=1e-06
+ AD=8.5e-13	AS=8.5e-13	PD=2.7e-06	PS=2.7e-06	wtot=1e-06
MavD1_16	GNDA#386	GNDA#58	GNDA#391	GNDA#616
+ nmos4#20auLvs#20PRIMLIB	L=1e-05	W=1e-06
+ AD=8.5e-13	AS=8.5e-13	PD=2.7e-06	PS=2.7e-06	wtot=1e-06
MavD1_17	GNDA#402	GNDA#50	GNDA#408	GNDA#616
+ nmos4#20auLvs#20PRIMLIB	L=1e-05	W=1e-06
+ AD=8.5e-13	AS=8.5e-13	PD=2.7e-06	PS=2.7e-06	wtot=1e-06
MavD1_18	GNDA#419	GNDA#42	GNDA#425	GNDA#616
+ nmos4#20auLvs#20PRIMLIB	L=1e-05	W=1e-06
+ AD=8.5e-13	AS=8.5e-13	PD=2.7e-06	PS=2.7e-06	wtot=1e-06
MavD1_19	GNDA#410	GNDA#46	GNDA#417	GNDA#616
+ nmos4#20auLvs#20PRIMLIB	L=1e-05	W=1e-06
+ AD=8.5e-13	AS=8.5e-13	PD=2.7e-06	PS=2.7e-06	wtot=1e-06
MavD1_20	GNDA#428	GNDA#38	GNDA#432	GNDA#616
+ nmos4#20auLvs#20PRIMLIB	L=1e-05	W=1e-06
+ AD=8.5e-13	AS=8.5e-13	PD=2.7e-06	PS=2.7e-06	wtot=1e-06
MavD1_21	GNDA#451	GNDA#26	GNDA#458	GNDA#616
+ nmos4#20auLvs#20PRIMLIB	L=1e-05	W=1e-06
+ AD=8.5e-13	AS=8.5e-13	PD=2.7e-06	PS=2.7e-06	wtot=1e-06
MavD1_22	GNDA#443	GNDA#30	GNDA#449	GNDA#616
+ nmos4#20auLvs#20PRIMLIB	L=1e-05	W=1e-06
+ AD=8.5e-13	AS=8.5e-13	PD=2.7e-06	PS=2.7e-06	wtot=1e-06
MavD1_23	GNDA#434	GNDA#34	GNDA#441	GNDA#616
+ nmos4#20auLvs#20PRIMLIB	L=1e-05	W=1e-06
+ AD=8.5e-13	AS=8.5e-13	PD=2.7e-06	PS=2.7e-06	wtot=1e-06
MavD1_24	GNDA#467	GNDA#15	GNDA#473	GNDA#616
+ nmos4#20auLvs#20PRIMLIB	L=1e-05	W=1e-06
+ AD=8.5e-13	AS=8.5e-13	PD=2.7e-06	PS=2.7e-06	wtot=1e-06
MavD1_25	GNDA#460	GNDA#19	GNDA#465	GNDA#616
+ nmos4#20auLvs#20PRIMLIB	L=1e-05	W=1e-06
+ AD=8.5e-13	AS=8.5e-13	PD=2.7e-06	PS=2.7e-06	wtot=1e-06
MavD1_26	GNDA#475	GNDA#11	GNDA#482	GNDA#616
+ nmos4#20auLvs#20PRIMLIB	L=1e-05	W=1e-06
+ AD=8.5e-13	AS=8.5e-13	PD=2.7e-06	PS=2.7e-06	wtot=1e-06
MMP18(3)/avD5_1	VDDA#48	VDDA#5	VDDA#56	VDDA#66
+ pmos4#20auLvs#20PRIMLIB	L=1e-05	W=1.25e-05
+ AD=1.0625e-11	AS=1.0625e-11	PD=1.42e-05	PS=1.42e-05	wtot=1.25e-05
MMP4(3)/avD5_1	avC8#71	avC8#10	VDDA#55	VDDA#66
+ pmos4#20auLvs#20PRIMLIB	L=1e-05	W=1.25e-05
+ AD=1.0625e-11	AS=1.0625e-11	PD=1.42e-05	PS=1.42e-05	wtot=1.25e-05
MMP0(3)/avD5_1	avC9#68	avC8#7	VDDA#33	VDDA#66
+ pmos4#20auLvs#20PRIMLIB	L=1e-05	W=1.25e-05
+ AD=1.0625e-11	AS=1.0625e-11	PD=1.42e-05	PS=1.42e-05	wtot=1.25e-05
MMP0(2)/avD5_1	avC9#65	avC8#4	VDDA#27	VDDA#66
+ pmos4#20auLvs#20PRIMLIB	L=1e-05	W=1.25e-05
+ AD=1.0625e-11	AS=1.0625e-11	PD=1.42e-05	PS=1.42e-05	wtot=1.25e-05
MMP4(2)/avD5_1	avC8#74	avC8	VDDA#28	VDDA#66
+ pmos4#20auLvs#20PRIMLIB	L=1e-05	W=1.25e-05
+ AD=1.0625e-11	AS=1.0625e-11	PD=1.42e-05	PS=1.42e-05	wtot=1.25e-05
MMP18(2)/avD5_1	VDDA#29	VDDA#1	VDDA#30	VDDA#66
+ pmos4#20auLvs#20PRIMLIB	L=1e-05	W=1.25e-05
+ AD=1.0625e-11	AS=1.0625e-11	PD=1.42e-05	PS=1.42e-05	wtot=1.25e-05
MMP18(1)/avD5_1	VDDA#57	VDDA#7	VDDA#42	VDDA#66
+ pmos4#20auLvs#20PRIMLIB	L=1e-05	W=1.25e-05
+ AD=1.0625e-11	AS=1.0625e-11	PD=1.42e-05	PS=1.42e-05	wtot=1.25e-05
MMP0(1)/avD5_1	avC9#70	avC8#12	VDDA#40	VDDA#66
+ pmos4#20auLvs#20PRIMLIB	L=1e-05	W=1.25e-05
+ AD=1.0625e-11	AS=1.0625e-11	PD=1.42e-05	PS=1.42e-05	wtot=1.25e-05
MMP4(1)/avD5_1	avC8#72	avC8#9	VDDA#41	VDDA#66
+ pmos4#20auLvs#20PRIMLIB	L=1e-05	W=1.25e-05
+ AD=1.0625e-11	AS=1.0625e-11	PD=1.42e-05	PS=1.42e-05	wtot=1.25e-05
MMP4(0)/avD5_1	avC8#73	avC8#6	VDDA#18	VDDA#66
+ pmos4#20auLvs#20PRIMLIB	L=1e-05	W=1.25e-05
+ AD=1.0625e-11	AS=1.0625e-11	PD=1.42e-05	PS=1.42e-05	wtot=1.25e-05
MMP0(0)/avD5_1	avC9#63	avC8#3	VDDA#15	VDDA#66
+ pmos4#20auLvs#20PRIMLIB	L=1e-05	W=1.25e-05
+ AD=1.0625e-11	AS=1.0625e-11	PD=1.42e-05	PS=1.42e-05	wtot=1.25e-05
MMP18(0)/avD5_1	VDDA#16	VDDA#3	VDDA#9	VDDA#66
+ pmos4#20auLvs#20PRIMLIB	L=1e-05	W=1.25e-05
+ AD=1.0625e-11	AS=1.0625e-11	PD=1.42e-05	PS=1.42e-05	wtot=1.25e-05
MavD5_1	OUT#93	avC9#13	VDDA#44	VDDA#94
+ pmos4#20auLvs#20PRIMLIB	L=1e-06	W=5e-06
+ AD=2.5e-12	AS=4.25e-12	PD=1e-06	PS=6.7e-06	wtot=5e-06
MavD5_2	VDDA#46	avC9#12	OUT#93	VDDA#94
+ pmos4#20auLvs#20PRIMLIB	L=1e-06	W=5e-06
+ AD=2.5e-12	AS=2.5e-12	PD=1e-06	PS=1e-06	wtot=5e-06
MavD5_3	OUT#95	avC9#10	VDDA#46	VDDA#94
+ pmos4#20auLvs#20PRIMLIB	L=1e-06	W=5e-06
+ AD=2.5e-12	AS=2.5e-12	PD=1e-06	PS=1e-06	wtot=5e-06
MavD5_4	VDDA#60	avC9#8	OUT#95	VDDA#94	pmos4#20auLvs#20PRIMLIB
+ L=1e-06	W=5e-06
+ AD=2.5e-12	AS=2.5e-12	PD=1e-06	PS=1e-06
+ wtot=5e-06
MavD5_5	OUT#97	avC9#7	VDDA#60	VDDA#94	pmos4#20auLvs#20PRIMLIB
+ L=1e-06	W=5e-06
+ AD=2.5e-12	AS=2.5e-12	PD=1e-06	PS=1e-06
+ wtot=5e-06
MavD5_6	VDDA#62	avC9#6	OUT#97	VDDA#94	pmos4#20auLvs#20PRIMLIB
+ L=1e-06	W=5e-06
+ AD=2.5e-12	AS=2.5e-12	PD=1e-06	PS=1e-06
+ wtot=5e-06
MavD5_7	OUT#99	avC9#5	VDDA#62	VDDA#94	pmos4#20auLvs#20PRIMLIB
+ L=1e-06	W=5e-06
+ AD=2.5e-12	AS=2.5e-12	PD=1e-06	PS=1e-06
+ wtot=5e-06
MavD5_8	VDDA#64	avC9	OUT#99	VDDA#94	pmos4#20auLvs#20PRIMLIB
+ L=1e-06	W=5e-06
+ AD=4.25e-12	AS=2.5e-12	PD=6.7e-06	PS=1e-06
+ wtot=5e-06
*
*
*       CANONICAL RESISTOR AND CAP/DIODE CARDS
*
RavD66_1	avC10	avC9#14	12000.000000
+ gwell="N-Well" cap=6.192e-15 	$SUB=GNDA#717 
*
*       PARASITIC RESISTOR AND CAP/DIODE CARDS
*
Rb1	avC197#10	avC197#14	0.604284	$met3
+ $X=15.15 $Y=85.0505
Rb2	avC197#14	avC197#17	0.306865	$met3
+ $X=15.15 $Y=69.2755
Rb3	avC197#17	avC197#20	0.306865	$met3
+ $X=15.15 $Y=56.4755
Rb4	avC197#20	avC197#22	0.306865	$met3
+ $X=15.15 $Y=43.6755
Rb5	avC197#22	avC197#24	0.666904	$met3
+ $X=15.15 $Y=31.6255
Rb6	OUT#102	OUT#115	0.458044	$met3
+ $X=18.95 $Y=80.5005
Rb7	OUT#115	OUT#126	0.306865	$met3
+ $X=18.95 $Y=67.7755
Rb8	OUT#126	OUT#137	0.306865	$met3
+ $X=18.95 $Y=54.9755
Rb9	OUT#137	OUT#150	0.306865	$met3
+ $X=18.95 $Y=42.1755
Rb10	OUT#150	OUT#152	0.666904	$met3
+ $X=18.95 $Y=30.1255
Rb11	GNDA#725	GNDA#910	0.047948	$met3
+ $X=25.8 $Y=79.175
Rb12	GNDA#910	GNDA#727	0.207973	$met3
+ $X=26.55 $Y=73.9505
Rb13	GNDA#727	GNDA#912	0.098892	$met3
+ $X=26.55 $Y=65.3255
Rb14	GNDA#912	GNDA#729	0.207973	$met3
+ $X=26.55 $Y=61.1505
Rb15	GNDA#729	GNDA#914	0.098892	$met3
+ $X=26.55 $Y=52.5255
Rb16	GNDA#914	GNDA#731	0.207973	$met3
+ $X=26.55 $Y=48.3505
Rb17	GNDA#731	GNDA#916	0.098892	$met3
+ $X=26.55 $Y=39.7255
Rb18	GNDA#916	GNDA#733	0.207373	$met3
+ $X=26.55 $Y=35.563
Rb19	GNDA#733	GNDA#918	0.207373	$met3
+ $X=26.55 $Y=24.688
Rb20	GNDA#918	GNDA#735	0.052742	$met3
+ $X=26.55 $Y=21.475
Rb21	GNDA#735	GNDA#900	0.207517	$met3
+ $X=26.55 $Y=18.013
Rb22	GNDA#725	GNDA#787	0.443948	$met3
+ $X=26.55 $Y=80.337
Rb23	avC7#186	avC7#189	1.022529	$met3
+ $X=22.75 $Y=109.363
Rb24	avC7#189	avC7#202	0.453105	$met3
+ $X=22.75 $Y=81.6505
Rb25	avC7#202	avC7#216	0.306865	$met3
+ $X=22.75 $Y=66.2755
Rb26	avC7#216	avC7#230	0.306865	$met3
+ $X=22.75 $Y=53.4755
Rb27	avC7#230	avC7#243	0.306865	$met3
+ $X=22.75 $Y=40.6755
Rb28	avC7#243	avC7#245	0.666904	$met3
+ $X=22.75 $Y=28.6255
Rb29	BIAS	BIAS#13	0.052174	$met3	$X=30.7 $Y=134.65
Rb30	avC8#83	avC8#94	2.047794	$met3
+ $X=48.55 $Y=150.8005
Rb31	avC9#84	avC9#93	2.047794	$met3
+ $X=52.35 $Y=153.6005
Rb32	avC198#118	avC198#99	1.486591	$met3
+ $X=56.15 $Y=155.813
Rb33	avC198#99	avC198#136	0.359823	$met3
+ $X=56.15 $Y=125.088
Rb34	INN	INN#50	0.301966	$met3	$X=63.15 $Y=154.05
Rb35	INP	INP#50	0.297979	$met3	$X=63.15 $Y=150.35
Rb36	GNDA#746	GNDA#923	0.047948	$met3
+ $X=191 $Y=79.175
Rb37	GNDA#923	GNDA#748	0.207973	$met3
+ $X=190.25 $Y=73.9505
Rb38	GNDA#748	GNDA#925	0.098892	$met3
+ $X=190.25 $Y=65.3255
Rb39	GNDA#925	GNDA#750	0.207973	$met3
+ $X=190.25 $Y=61.1505
Rb40	GNDA#750	GNDA#927	0.098892	$met3
+ $X=190.25 $Y=52.5255
Rb41	GNDA#927	GNDA#752	0.207973	$met3
+ $X=190.25 $Y=48.3505
Rb42	GNDA#752	GNDA#929	0.098892	$met3
+ $X=190.25 $Y=39.7255
Rb43	GNDA#929	GNDA#754	0.207373	$met3
+ $X=190.25 $Y=35.563
Rb44	GNDA#754	GNDA#931	0.207373	$met3
+ $X=190.25 $Y=24.688
Rb45	GNDA#931	GNDA#756	0.052742	$met3
+ $X=190.25 $Y=21.475
Rb46	GNDA#756	GNDA#890	0.207517	$met3
+ $X=190.25 $Y=18.013
Rb47	GNDA#746	GNDA#759	0.443948	$met3
+ $X=190.25 $Y=80.337
Rb48	avC198#101	avC198#119	1.846414	$met3
+ $X=191.35 $Y=152.2005
Rb49	avC197#9	avC197#13	0.604284	$met3
+ $X=194.05 $Y=85.0505
Rb50	avC197#13	avC197#15	0.306865	$met3
+ $X=194.05 $Y=69.2755
Rb51	avC197#15	avC197#18	0.306865	$met3
+ $X=194.05 $Y=56.4755
Rb52	avC197#18	avC197#21	0.306865	$met3
+ $X=194.05 $Y=43.6755
Rb53	avC197#21	avC197#23	0.666904	$met3
+ $X=194.05 $Y=31.6255
Rb54	avC8#75	avC8#96	0.633124	$met3
+ $X=195.15 $Y=176.413
Rb55	avC8#96	avC8#84	1.414670	$met3
+ $X=195.15 $Y=141.488
Rb56	avC7#188	avC7#190	0.585105	$met3
+ $X=201.65 $Y=81.6505
Rb57	avC7#190	avC7#203	0.306865	$met3
+ $X=201.65 $Y=66.2755
Rb58	avC7#203	avC7#217	0.306865	$met3
+ $X=201.65 $Y=53.4755
Rb59	avC7#217	avC7#231	0.306865	$met3
+ $X=201.65 $Y=40.6755
Rb60	avC7#231	avC7#244	0.666904	$met3
+ $X=201.65 $Y=28.6255
Rb61	avC9#97	avC9#109	0.576522	$met3
+ $X=212 $Y=179.613
Rb62	avC9#109	avC9#110	0.254131	$met3
+ $X=205.475 $Y=171.4
Rb63	avC9#110	avC9#85	1.446771	$met3
+ $X=198.95 $Y=145.0375
Rb64	avC9#109	avC9#102	0.787492	$met3
+ $X=212 $Y=158.7875
Rb65	avC9#110	avC9#74	0.593304	$met3
+ $X=198.95 $Y=179.9625
Rb66	VDDA#107	VDDA#156	0.542240	$met3
+ $X=215.8 $Y=187.838
Rb67	VDDA#156	VDDA#157	0.841480	$met3
+ $X=215.8 $Y=167.0005
Rb68	VDDA#157	VDDA#109	0.542240	$met3
+ $X=215.8 $Y=146.163
Rb69	OUT	OUT#166	2.090343	$met3	$X=258.6125 $Y=99.35
Rb70	OUT#166	OUT#101	0.662104	$met3
+ $X=206.9125 $Y=99.35
Rb71	OUT#101	OUT#103	0.326044	$met3
+ $X=197.85 $Y=80.5005
Rb72	OUT#103	OUT#116	0.306865	$met3
+ $X=197.85 $Y=67.7755
Rb73	OUT#116	OUT#127	0.306865	$met3
+ $X=197.85 $Y=54.9755
Rb74	OUT#127	OUT#138	0.306865	$met3
+ $X=197.85 $Y=42.1755
Rb75	OUT#138	OUT#151	0.666904	$met3
+ $X=197.85 $Y=30.1255
Rb76	OUT	OUT#157	0.190736	$met3	$X=294.55 $Y=108.75
Rb77	OUT#166	OUT#153	0.222192	$met3
+ $X=215.35 $Y=101.4125
Rb78	VDDA#111	VDDA#160	0.542240	$met3
+ $X=295.3 $Y=187.838
Rb79	VDDA#160	VDDA#161	0.841480	$met3
+ $X=295.3 $Y=167.0005
Rb80	VDDA#161	VDDA#113	0.542240	$met3
+ $X=295.3 $Y=146.163
Rb81	avC9#94	avC9#98	1.371733	$met3
+ $X=299.1 $Y=167.0005
Rb95	GNDA#808	GNDA#910	0.396000	$met3
+ $X=26.55 $Y=77.175
Rb97	GNDA#829	GNDA#912	0.396000	$met3
+ $X=26.55 $Y=64.375
Rb99	GNDA#850	GNDA#914	0.396000	$met3
+ $X=26.55 $Y=51.575
Rb101	GNDA#871	GNDA#916	0.396000	$met3
+ $X=26.55 $Y=38.775
Rb103	GNDA#888	GNDA#918	0.396000	$met3
+ $X=26.55 $Y=21.475
Rb125	GNDA#790	GNDA#923	0.396000	$met3
+ $X=190.25 $Y=77.175
Rb127	GNDA#811	GNDA#925	0.396000	$met3
+ $X=190.25 $Y=64.375
Rb129	GNDA#832	GNDA#927	0.396000	$met3
+ $X=190.25 $Y=51.575
Rb131	GNDA#853	GNDA#929	0.396000	$met3
+ $X=190.25 $Y=38.775
Rb133	GNDA#874	GNDA#931	0.396000	$met3
+ $X=190.25 $Y=21.475
Rb159	VDDA#128	VDDA#156	0.198000	$met3
+ $X=215.8 $Y=184.55
Rb160	VDDA#147	VDDA#157	0.198000	$met3
+ $X=215.8 $Y=149.45
Rb171	VDDA#119	VDDA#160	0.198000	$met3
+ $X=295.3 $Y=184.55
Rb172	VDDA#138	VDDA#161	0.198000	$met3
+ $X=295.3 $Y=149.45
Rd1	GNDA#725	GNDA#694	1.188000	$met2
+ $X=25.8 $Y=79.175
Rd2	GNDA#727	GNDA#697	0.396000	$met2	$X=25.8 $Y=68.5
Rd3	GNDA#729	GNDA#700	0.396000	$met2	$X=25.8 $Y=55.7
Rd4	GNDA#731	GNDA#702	0.396000	$met2	$X=25.8 $Y=42.9
Rd5	GNDA#733	GNDA#705	0.396000	$met2
+ $X=25.8 $Y=30.125
Rd6	GNDA#735	GNDA#484	1.188000	$met2
+ $X=25.8 $Y=19.275
Rd7	BIAS#13	BIAS#10	0.049500	$met2
+ $X=30.7 $Y=134.65
Rd8	avC7#92	avC7#186	0.436755	$met2
+ $X=28.825 $Y=124.45
Rd9	avC7#186	avC7#90	0.451140	$met2
+ $X=26.8255 $Y=124.45
Rd10	avC198#99	avC198#2	1.290171	$met2
+ $X=41.85 $Y=125.2505
Rd11	INN#50	INN#49	0.297000	$met2	$X=63.15 $Y=154.05
Rd12	INP#50	INP#49	0.297000	$met2	$X=63.15 $Y=150.35
Rd13	GNDA#673	GNDA#738	0.373464	$met2
+ $X=185.126 $Y=83.975
Rd14	GNDA#738	GNDA#739	0.478277	$met2
+ $X=175.375 $Y=83.975
Rd15	GNDA#739	GNDA#740	0.478277	$met2
+ $X=155.425 $Y=83.975
Rd16	GNDA#740	GNDA#741	0.478277	$met2
+ $X=135.475 $Y=83.975
Rd17	GNDA#741	GNDA#742	0.478277	$met2
+ $X=115.525 $Y=83.975
Rd18	GNDA#742	GNDA#743	0.478277	$met2
+ $X=95.575 $Y=83.975
Rd19	GNDA#743	GNDA#744	0.478277	$met2
+ $X=75.625 $Y=83.975
Rd20	GNDA#744	GNDA#690	0.497134	$met2
+ $X=55.675 $Y=83.975
Rd21	GNDA#746	GNDA#572	1.188000	$met2
+ $X=191 $Y=79.175
Rd22	GNDA#748	GNDA#575	0.396000	$met2	$X=191 $Y=68.5
Rd23	GNDA#750	GNDA#577	0.396000	$met2	$X=191 $Y=55.7
Rd24	GNDA#752	GNDA#580	0.396000	$met2	$X=191 $Y=42.9
Rd25	GNDA#754	GNDA#583	0.396000	$met2
+ $X=191 $Y=30.125
Rd26	GNDA#756	GNDA#586	1.188000	$met2
+ $X=191 $Y=19.275
Rd27	avC9#74	avC9#62	0.858073	$met2
+ $X=186.7505 $Y=188.05
Rd28	avC9#62	avC9#56	0.534237	$met2
+ $X=168.2005 $Y=188.05
Rd29	avC9#56	avC9#50	0.534237	$met2
+ $X=153.6005 $Y=188.05
Rd30	avC9#50	avC9#44	0.534237	$met2
+ $X=139.0005 $Y=188.05
Rd31	avC9#44	avC9#38	0.534237	$met2
+ $X=124.4005 $Y=188.05
Rd32	avC9#38	avC9#35	0.267119	$met2
+ $X=113.4505 $Y=188.05
Rd33	avC9#35	avC9#29	0.534237	$met2
+ $X=102.5005 $Y=188.05
Rd34	avC9#29	avC9#23	0.534237	$met2
+ $X=87.9005 $Y=188.05
Rd35	avC9#23	avC9#17	0.534237	$met2
+ $X=73.3005 $Y=188.05
Rd36	avC9#17	avC9#84	0.499475	$met2
+ $X=59.6505 $Y=188.05
Rd37	avC8#75	avC8#57	0.986143	$met2
+ $X=181.2005 $Y=185.25
Rd38	avC8#57	avC8#51	0.534237	$met2
+ $X=160.9005 $Y=185.25
Rd39	avC8#51	avC8#45	0.534237	$met2
+ $X=146.3005 $Y=185.25
Rd40	avC8#45	avC8#39	0.534237	$met2
+ $X=131.7005 $Y=185.25
Rd41	avC8#39	avC8#30	0.801356	$met2
+ $X=113.4505 $Y=185.25
Rd42	avC8#30	avC8#24	0.534237	$met2
+ $X=95.2005 $Y=185.25
Rd43	avC8#24	avC8#18	0.534237	$met2
+ $X=80.6005 $Y=185.25
Rd44	avC8#18	avC8#83	0.905642	$met2
+ $X=61.4005 $Y=185.25
Rd45	avC198#101	avC198#95	0.360427	$met2
+ $X=185.9505 $Y=182.45
Rd46	avC198#95	avC198#89	0.267119	$met2
+ $X=177.8505 $Y=182.45
Rd47	avC198#89	avC198#83	0.267119	$met2
+ $X=170.5505 $Y=182.45
Rd48	avC198#83	avC198#77	0.267119	$met2
+ $X=163.2505 $Y=182.45
Rd49	avC198#77	avC198#71	0.267119	$met2
+ $X=155.9505 $Y=182.45
Rd50	avC198#71	avC198#65	0.267119	$met2
+ $X=148.6505 $Y=182.45
Rd51	avC198#65	avC198#59	0.267119	$met2
+ $X=141.3505 $Y=182.45
Rd52	avC198#59	avC198#53	0.267119	$met2
+ $X=134.0505 $Y=182.45
Rd53	avC198#53	avC198#47	0.267119	$met2
+ $X=126.7505 $Y=182.45
Rd54	avC198#47	avC198#41	0.267119	$met2
+ $X=119.4505 $Y=182.45
Rd55	avC198#41	avC198#35	0.267119	$met2
+ $X=112.1505 $Y=182.45
Rd56	avC198#35	avC198#29	0.267119	$met2
+ $X=104.8505 $Y=182.45
Rd57	avC198#29	avC198#23	0.267119	$met2
+ $X=97.5505 $Y=182.45
Rd58	avC198#23	avC198#17	0.267119	$met2
+ $X=90.2505 $Y=182.45
Rd59	avC198#17	avC198#11	0.267119	$met2
+ $X=82.9505 $Y=182.45
Rd60	avC198#11	avC198#5	0.267119	$met2
+ $X=75.6505 $Y=182.45
Rd61	avC198#5	avC198#118	0.579976	$met2
+ $X=64.5505 $Y=182.45
Rd62	avC198#119	avC198#98	0.360427	$met2
+ $X=185.9505 $Y=121.95
Rd63	avC198#98	avC198#92	0.267119	$met2
+ $X=177.8505 $Y=121.95
Rd64	avC198#92	avC198#86	0.267119	$met2
+ $X=170.5505 $Y=121.95
Rd65	avC198#86	avC198#80	0.267119	$met2
+ $X=163.2505 $Y=121.95
Rd66	avC198#80	avC198#74	0.267119	$met2
+ $X=155.9505 $Y=121.95
Rd67	avC198#74	avC198#68	0.267119	$met2
+ $X=148.6505 $Y=121.95
Rd68	avC198#68	avC198#62	0.267119	$met2
+ $X=141.3505 $Y=121.95
Rd69	avC198#62	avC198#56	0.267119	$met2
+ $X=134.0505 $Y=121.95
Rd70	avC198#56	avC198#50	0.267119	$met2
+ $X=126.7505 $Y=121.95
Rd71	avC198#50	avC198#44	0.267119	$met2
+ $X=119.4505 $Y=121.95
Rd72	avC198#44	avC198#38	0.267119	$met2
+ $X=112.1505 $Y=121.95
Rd73	avC198#38	avC198#32	0.267119	$met2
+ $X=104.8505 $Y=121.95
Rd74	avC198#32	avC198#26	0.267119	$met2
+ $X=97.5505 $Y=121.95
Rd75	avC198#26	avC198#20	0.267119	$met2
+ $X=90.2505 $Y=121.95
Rd76	avC198#20	avC198#14	0.267119	$met2
+ $X=82.9505 $Y=121.95
Rd77	avC198#14	avC198#8	0.267119	$met2
+ $X=75.6505 $Y=121.95
Rd78	avC198#8	avC198#136	0.579976	$met2
+ $X=64.5505 $Y=121.95
Rd79	avC9#85	avC9#59	1.125191	$met2
+ $X=183.1005 $Y=119.15
Rd80	avC9#59	avC9#53	0.534237	$met2
+ $X=160.9005 $Y=119.15
Rd81	avC9#53	avC9#47	0.534237	$met2
+ $X=146.3005 $Y=119.15
Rd82	avC9#47	avC9#41	0.534237	$met2
+ $X=131.7005 $Y=119.15
Rd83	avC9#41	avC9#32	0.801356	$met2
+ $X=113.4505 $Y=119.15
Rd84	avC9#32	avC9#26	0.534237	$met2
+ $X=95.2005 $Y=119.15
Rd85	avC9#26	avC9#20	0.534237	$met2
+ $X=80.6005 $Y=119.15
Rd86	avC9#20	avC9#93	0.766594	$met2
+ $X=63.3005 $Y=119.15
Rd87	avC8#84	avC8#60	0.719025	$met2
+ $X=184.8505 $Y=116.35
Rd88	avC8#60	avC8#54	0.534237	$met2
+ $X=168.2005 $Y=116.35
Rd89	avC8#54	avC8#48	0.534237	$met2
+ $X=153.6005 $Y=116.35
Rd90	avC8#48	avC8#42	0.534237	$met2
+ $X=139.0005 $Y=116.35
Rd91	avC8#42	avC8#36	0.534237	$met2
+ $X=124.4005 $Y=116.35
Rd92	avC8#36	avC8#33	0.267119	$met2
+ $X=113.4505 $Y=116.35
Rd93	avC8#33	avC8#27	0.534237	$met2
+ $X=102.5005 $Y=116.35
Rd94	avC8#27	avC8#21	0.534237	$met2
+ $X=87.9005 $Y=116.35
Rd95	avC8#21	avC8#15	0.534237	$met2
+ $X=73.3005 $Y=116.35
Rd96	avC8#15	avC8#94	0.638523	$met2
+ $X=57.7505 $Y=116.35
Rd97	avC197#9	avC197#10	4.287713	$met2
+ $X=104.6005 $Y=95.375
Rd98	avC197#10	avC197#2	0.962450	$met2
+ $X=15.15 $Y=108.0125
Rd99	avC197#2	avC197#4	0.491895	$met2
+ $X=33.4495 $Y=120.65
Rd100	avC7#188	avC7#189	4.420912	$met2
+ $X=112.2005 $Y=91.575
Rd101	OUT#101	OUT#102	4.420912	$met2
+ $X=108.4005 $Y=87.775
Rd102	GNDA#570	GNDA#759	1.245937	$met2
+ $X=190.25 $Y=81.175
Rd103	GNDA#759	GNDA#337	0.196985	$met2
+ $X=188.6005 $Y=81.175
Rd104	GNDA#337	GNDA#326	0.424869	$met2
+ $X=186.8505 $Y=81.175
Rd105	GNDA#326	GNDA#317	0.525292	$met2
+ $X=176.9005 $Y=81.175
Rd106	GNDA#317	GNDA#312	0.424869	$met2
+ $X=174.5505 $Y=81.175
Rd107	GNDA#312	GNDA#192	0.525292	$met2
+ $X=164.6005 $Y=81.175
Rd108	GNDA#192	GNDA#187	0.424869	$met2
+ $X=162.2505 $Y=81.175
Rd109	GNDA#187	GNDA#184	0.525292	$met2
+ $X=152.3005 $Y=81.175
Rd110	GNDA#184	GNDA#179	0.424869	$met2
+ $X=149.9505 $Y=81.175
Rd111	GNDA#179	GNDA#176	0.525292	$met2
+ $X=140.0005 $Y=81.175
Rd112	GNDA#176	GNDA#171	0.424869	$met2
+ $X=137.6505 $Y=81.175
Rd113	GNDA#171	GNDA#168	0.525292	$met2
+ $X=127.7005 $Y=81.175
Rd114	GNDA#168	GNDA#163	0.424869	$met2
+ $X=125.3505 $Y=81.175
Rd115	GNDA#163	GNDA#160	0.525292	$met2
+ $X=115.4005 $Y=81.175
Rd116	GNDA#160	GNDA#155	0.424869	$met2
+ $X=113.0505 $Y=81.175
Rd117	GNDA#155	GNDA#152	0.525292	$met2
+ $X=103.1005 $Y=81.175
Rd118	GNDA#152	GNDA#147	0.424869	$met2
+ $X=100.7505 $Y=81.175
Rd119	GNDA#147	GNDA#144	0.525292	$met2
+ $X=90.8005 $Y=81.175
Rd120	GNDA#144	GNDA#139	0.424869	$met2
+ $X=88.4505 $Y=81.175
Rd121	GNDA#139	GNDA#136	0.525292	$met2
+ $X=78.5005 $Y=81.175
Rd122	GNDA#136	GNDA#131	0.424869	$met2
+ $X=76.1505 $Y=81.175
Rd123	GNDA#131	GNDA#128	0.525292	$met2
+ $X=66.2005 $Y=81.175
Rd124	GNDA#128	GNDA#123	0.424869	$met2
+ $X=63.8505 $Y=81.175
Rd125	GNDA#123	GNDA#120	0.525292	$met2
+ $X=53.9005 $Y=81.175
Rd126	GNDA#120	GNDA#115	0.424869	$met2
+ $X=51.5505 $Y=81.175
Rd127	GNDA#115	GNDA#106	0.525292	$met2
+ $X=41.6005 $Y=81.175
Rd128	GNDA#106	GNDA#85	0.424869	$met2
+ $X=39.2505 $Y=81.175
Rd129	GNDA#85	GNDA#76	0.424869	$met2
+ $X=29.9505 $Y=81.175
Rd130	GNDA#76	GNDA#787	0.196985	$met2
+ $X=28.2005 $Y=81.175
Rd131	GNDA#787	GNDA#693	1.245937	$met2
+ $X=26.55 $Y=81.175
Rd132	GNDA#573	GNDA#790	1.245937	$met2
+ $X=190.25 $Y=77.175
Rd133	GNDA#790	GNDA#339	0.196985	$met2
+ $X=188.6005 $Y=77.175
Rd134	GNDA#339	GNDA#328	0.424869	$met2
+ $X=186.8505 $Y=77.175
Rd135	GNDA#328	GNDA#319	0.424869	$met2
+ $X=177.5505 $Y=77.175
Rd136	GNDA#319	GNDA#193	0.903812	$met2
+ $X=171.088 $Y=77.175
Rd137	GNDA#193	GNDA#185	0.950161	$met2
+ $X=158.8505 $Y=77.175
Rd138	GNDA#185	GNDA#177	0.950161	$met2
+ $X=146.5505 $Y=77.175
Rd139	GNDA#177	GNDA#169	0.950161	$met2
+ $X=134.2505 $Y=77.175
Rd140	GNDA#169	GNDA#161	0.950161	$met2
+ $X=121.9505 $Y=77.175
Rd141	GNDA#161	GNDA#153	0.950161	$met2
+ $X=109.6505 $Y=77.175
Rd142	GNDA#153	GNDA#145	0.950161	$met2
+ $X=97.3505 $Y=77.175
Rd143	GNDA#145	GNDA#137	0.950161	$met2
+ $X=85.0505 $Y=77.175
Rd144	GNDA#137	GNDA#129	0.950161	$met2
+ $X=72.7505 $Y=77.175
Rd145	GNDA#129	GNDA#121	0.950161	$met2
+ $X=60.4505 $Y=77.175
Rd146	GNDA#121	GNDA#107	0.950161	$met2
+ $X=48.1505 $Y=77.175
Rd147	GNDA#107	GNDA#96	0.146773	$met2
+ $X=40.813 $Y=77.175
Rd148	GNDA#96	GNDA#87	0.424869	$met2
+ $X=39.2505 $Y=77.175
Rd149	GNDA#87	GNDA#78	0.424869	$met2
+ $X=29.9505 $Y=77.175
Rd150	GNDA#78	GNDA#808	0.196985	$met2
+ $X=28.2005 $Y=77.175
Rd151	GNDA#808	GNDA#695	1.245937	$met2
+ $X=26.55 $Y=77.175
Rd152	avC197#13	avC197#14	14.611826	$met2
+ $X=104.6005 $Y=75.675
Rd153	OUT#103	OUT#82	2.130238	$met2	$X=186.1505 $Y=74.175
Rd154	OUT#82	OUT#74	0.950161	$met2	$X=169.2505 $Y=74.175
Rd155	OUT#74	OUT#70	0.950161	$met2	$X=156.9505 $Y=74.175
Rd156	OUT#70	OUT#62	0.950161	$met2	$X=144.6505 $Y=74.175
Rd157	OUT#62	OUT#54	0.950161	$met2	$X=132.3505 $Y=74.175
Rd158	OUT#54	OUT#46	0.950161	$met2	$X=120.0505 $Y=74.175
Rd159	OUT#46	OUT#38	0.950161	$met2	$X=107.7505 $Y=74.175
Rd160	OUT#38	OUT#30	0.950161	$met2	$X=95.4505 $Y=74.175
Rd161	OUT#30	OUT#26	0.950161	$met2	$X=83.1505 $Y=74.175
Rd162	OUT#26	OUT#18	0.950161	$met2	$X=70.8505 $Y=74.175
Rd163	OUT#18	OUT#10	0.950161	$met2	$X=58.5505 $Y=74.175
Rd164	OUT#10	OUT#115	2.979975	$met2	$X=36.1505 $Y=74.175
Rd165	avC7#190	avC7#177	2.848652	$met2
+ $X=187.2005 $Y=72.675
Rd166	avC7#177	avC7#169	0.950161	$met2
+ $X=163.7505 $Y=72.675
Rd167	avC7#169	avC7#159	0.950161	$met2
+ $X=151.4505 $Y=72.675
Rd168	avC7#159	avC7#151	0.950161	$met2
+ $X=139.1505 $Y=72.675
Rd169	avC7#151	avC7#143	0.950161	$met2
+ $X=126.8505 $Y=72.675
Rd170	avC7#143	avC7#135	0.950161	$met2
+ $X=114.5505 $Y=72.675
Rd171	avC7#135	avC7#127	0.950161	$met2
+ $X=102.2505 $Y=72.675
Rd172	avC7#127	avC7#119	0.950161	$met2
+ $X=89.9505 $Y=72.675
Rd173	avC7#119	avC7#109	0.950161	$met2
+ $X=77.6505 $Y=72.675
Rd174	avC7#109	avC7#101	0.950161	$met2
+ $X=65.3505 $Y=72.675
Rd175	avC7#101	avC7#93	0.950161	$met2
+ $X=53.0505 $Y=72.675
Rd176	avC7#93	avC7#202	2.261561	$met2
+ $X=33.4005 $Y=72.675
Rd177	GNDA#576	GNDA#811	1.245937	$met2
+ $X=190.25 $Y=64.375
Rd178	GNDA#811	GNDA#341	0.196985	$met2
+ $X=188.6005 $Y=64.375
Rd179	GNDA#341	GNDA#330	0.424869	$met2
+ $X=186.8505 $Y=64.375
Rd180	GNDA#330	GNDA#321	0.424869	$met2
+ $X=177.5505 $Y=64.375
Rd181	GNDA#321	GNDA#815	0.903812	$met2
+ $X=171.088 $Y=64.375
Rd182	GNDA#815	GNDA#816	0.950161	$met2
+ $X=158.8505 $Y=64.375
Rd183	GNDA#816	GNDA#817	0.950161	$met2
+ $X=146.5505 $Y=64.375
Rd184	GNDA#817	GNDA#818	0.950161	$met2
+ $X=134.2505 $Y=64.375
Rd185	GNDA#818	GNDA#819	0.950161	$met2
+ $X=121.9505 $Y=64.375
Rd186	GNDA#819	GNDA#820	0.950161	$met2
+ $X=109.6505 $Y=64.375
Rd187	GNDA#820	GNDA#821	0.950161	$met2
+ $X=97.3505 $Y=64.375
Rd188	GNDA#821	GNDA#822	0.950161	$met2
+ $X=85.0505 $Y=64.375
Rd189	GNDA#822	GNDA#823	0.950161	$met2
+ $X=72.7505 $Y=64.375
Rd190	GNDA#823	GNDA#824	0.950161	$met2
+ $X=60.4505 $Y=64.375
Rd191	GNDA#824	GNDA#109	0.950161	$met2
+ $X=48.1505 $Y=64.375
Rd192	GNDA#109	GNDA#98	0.146773	$met2
+ $X=40.813 $Y=64.375
Rd193	GNDA#98	GNDA#89	0.424869	$met2
+ $X=39.2505 $Y=64.375
Rd194	GNDA#89	GNDA#80	0.424869	$met2
+ $X=29.9505 $Y=64.375
Rd195	GNDA#80	GNDA#829	0.196985	$met2
+ $X=28.2005 $Y=64.375
Rd196	GNDA#829	GNDA#698	1.245937	$met2
+ $X=26.55 $Y=64.375
Rd197	avC197#15	avC197#8	3.737014	$met2
+ $X=171.9505 $Y=62.875
Rd198	avC197#8	avC197#17	10.874812	$met2
+ $X=83.4505 $Y=62.875
Rd199	OUT#116	OUT#84	2.130238	$met2	$X=186.1505 $Y=61.375
Rd200	OUT#84	OUT#76	0.950161	$met2	$X=169.2505 $Y=61.375
Rd201	OUT#76	OUT#64	1.900323	$met2	$X=150.8005 $Y=61.375
Rd202	OUT#64	OUT#56	0.950161	$met2	$X=132.3505 $Y=61.375
Rd203	OUT#56	OUT#48	0.950161	$met2	$X=120.0505 $Y=61.375
Rd204	OUT#48	OUT#40	0.950161	$met2	$X=107.7505 $Y=61.375
Rd205	OUT#40	OUT#32	0.950161	$met2	$X=95.4505 $Y=61.375
Rd206	OUT#32	OUT#20	1.900323	$met2	$X=77.0005 $Y=61.375
Rd207	OUT#20	OUT#12	0.950161	$met2	$X=58.5505 $Y=61.375
Rd208	OUT#12	OUT#126	2.979975	$met2	$X=36.1505 $Y=61.375
Rd209	avC7#203	avC7#179	2.848652	$met2
+ $X=187.2005 $Y=59.875
Rd210	avC7#179	avC7#171	0.950161	$met2
+ $X=163.7505 $Y=59.875
Rd211	avC7#171	avC7#161	0.950161	$met2
+ $X=151.4505 $Y=59.875
Rd212	avC7#161	avC7#153	0.950161	$met2
+ $X=139.1505 $Y=59.875
Rd213	avC7#153	avC7#145	0.950161	$met2
+ $X=126.8505 $Y=59.875
Rd214	avC7#145	avC7#137	0.950161	$met2
+ $X=114.5505 $Y=59.875
Rd215	avC7#137	avC7#129	0.950161	$met2
+ $X=102.2505 $Y=59.875
Rd216	avC7#129	avC7#121	0.950161	$met2
+ $X=89.9505 $Y=59.875
Rd217	avC7#121	avC7#118	0.525292	$met2
+ $X=78.5005 $Y=59.875
Rd218	avC7#118	avC7#111	0.424869	$met2
+ $X=76.1505 $Y=59.875
Rd219	avC7#111	avC7#103	0.950161	$met2
+ $X=65.3505 $Y=59.875
Rd220	avC7#103	avC7#95	0.950161	$met2
+ $X=53.0505 $Y=59.875
Rd221	avC7#95	avC7#216	2.261561	$met2
+ $X=33.4005 $Y=59.875
Rd222	GNDA#579	GNDA#832	1.245937	$met2
+ $X=190.25 $Y=51.575
Rd223	GNDA#832	GNDA#343	0.196985	$met2
+ $X=188.6005 $Y=51.575
Rd224	GNDA#343	GNDA#332	0.424869	$met2
+ $X=186.8505 $Y=51.575
Rd225	GNDA#332	GNDA#323	0.424869	$met2
+ $X=177.5505 $Y=51.575
Rd226	GNDA#323	GNDA#836	0.903812	$met2
+ $X=171.088 $Y=51.575
Rd227	GNDA#836	GNDA#837	0.950161	$met2
+ $X=158.8505 $Y=51.575
Rd228	GNDA#837	GNDA#838	0.950161	$met2
+ $X=146.5505 $Y=51.575
Rd229	GNDA#838	GNDA#839	0.950161	$met2
+ $X=134.2505 $Y=51.575
Rd230	GNDA#839	GNDA#840	0.950161	$met2
+ $X=121.9505 $Y=51.575
Rd231	GNDA#840	GNDA#841	0.950161	$met2
+ $X=109.6505 $Y=51.575
Rd232	GNDA#841	GNDA#842	0.950161	$met2
+ $X=97.3505 $Y=51.575
Rd233	GNDA#842	GNDA#843	0.950161	$met2
+ $X=85.0505 $Y=51.575
Rd234	GNDA#843	GNDA#844	0.950161	$met2
+ $X=72.7505 $Y=51.575
Rd235	GNDA#844	GNDA#845	0.950161	$met2
+ $X=60.4505 $Y=51.575
Rd236	GNDA#845	GNDA#111	0.950161	$met2
+ $X=48.1505 $Y=51.575
Rd237	GNDA#111	GNDA#100	0.146773	$met2
+ $X=40.813 $Y=51.575
Rd238	GNDA#100	GNDA#91	0.424869	$met2
+ $X=39.2505 $Y=51.575
Rd239	GNDA#91	GNDA#82	0.424869	$met2
+ $X=29.9505 $Y=51.575
Rd240	GNDA#82	GNDA#850	0.196985	$met2
+ $X=28.2005 $Y=51.575
Rd241	GNDA#850	GNDA#701	1.245937	$met2
+ $X=26.55 $Y=51.575
Rd242	avC197#18	avC197#6	9.437983	$met2
+ $X=135.0505 $Y=50.075
Rd243	avC197#6	avC197#20	5.173844	$met2
+ $X=46.5505 $Y=50.075
Rd244	OUT#127	OUT#86	2.130238	$met2	$X=186.1505 $Y=48.575
Rd245	OUT#86	OUT#78	0.950161	$met2	$X=169.2505 $Y=48.575
Rd246	OUT#78	OUT#66	1.900323	$met2	$X=150.8005 $Y=48.575
Rd247	OUT#66	OUT#58	0.950161	$met2	$X=132.3505 $Y=48.575
Rd248	OUT#58	OUT#50	0.950161	$met2	$X=120.0505 $Y=48.575
Rd249	OUT#50	OUT#42	0.950161	$met2	$X=107.7505 $Y=48.575
Rd250	OUT#42	OUT#34	0.950161	$met2	$X=95.4505 $Y=48.575
Rd251	OUT#34	OUT#22	1.900323	$met2	$X=77.0005 $Y=48.575
Rd252	OUT#22	OUT#14	0.950161	$met2	$X=58.5505 $Y=48.575
Rd253	OUT#14	OUT#137	2.979975	$met2	$X=36.1505 $Y=48.575
Rd254	avC7#217	avC7#181	2.848652	$met2
+ $X=187.2005 $Y=47.075
Rd255	avC7#181	avC7#173	0.950161	$met2
+ $X=163.7505 $Y=47.075
Rd256	avC7#173	avC7#168	0.525292	$met2
+ $X=152.3005 $Y=47.075
Rd257	avC7#168	avC7#163	0.424869	$met2
+ $X=149.9505 $Y=47.075
Rd258	avC7#163	avC7#155	0.950161	$met2
+ $X=139.1505 $Y=47.075
Rd259	avC7#155	avC7#147	0.950161	$met2
+ $X=126.8505 $Y=47.075
Rd260	avC7#147	avC7#139	0.950161	$met2
+ $X=114.5505 $Y=47.075
Rd261	avC7#139	avC7#131	0.950161	$met2
+ $X=102.2505 $Y=47.075
Rd262	avC7#131	avC7#123	0.950161	$met2
+ $X=89.9505 $Y=47.075
Rd263	avC7#123	avC7#113	0.950161	$met2
+ $X=77.6505 $Y=47.075
Rd264	avC7#113	avC7#105	0.950161	$met2
+ $X=65.3505 $Y=47.075
Rd265	avC7#105	avC7#97	0.950161	$met2
+ $X=53.0505 $Y=47.075
Rd266	avC7#97	avC7#230	2.261561	$met2
+ $X=33.4005 $Y=47.075
Rd267	GNDA#582	GNDA#853	1.245937	$met2
+ $X=190.25 $Y=38.775
Rd268	GNDA#853	GNDA#345	0.196985	$met2
+ $X=188.6005 $Y=38.775
Rd269	GNDA#345	GNDA#334	0.424869	$met2
+ $X=186.8505 $Y=38.775
Rd270	GNDA#334	GNDA#325	0.424869	$met2
+ $X=177.5505 $Y=38.775
Rd271	GNDA#325	GNDA#857	0.903812	$met2
+ $X=171.088 $Y=38.775
Rd272	GNDA#857	GNDA#858	0.950161	$met2
+ $X=158.8505 $Y=38.775
Rd273	GNDA#858	GNDA#859	0.950161	$met2
+ $X=146.5505 $Y=38.775
Rd274	GNDA#859	GNDA#860	0.950161	$met2
+ $X=134.2505 $Y=38.775
Rd275	GNDA#860	GNDA#861	0.950161	$met2
+ $X=121.9505 $Y=38.775
Rd276	GNDA#861	GNDA#862	0.950161	$met2
+ $X=109.6505 $Y=38.775
Rd277	GNDA#862	GNDA#863	0.950161	$met2
+ $X=97.3505 $Y=38.775
Rd278	GNDA#863	GNDA#864	0.950161	$met2
+ $X=85.0505 $Y=38.775
Rd279	GNDA#864	GNDA#865	0.950161	$met2
+ $X=72.7505 $Y=38.775
Rd280	GNDA#865	GNDA#866	0.950161	$met2
+ $X=60.4505 $Y=38.775
Rd281	GNDA#866	GNDA#113	0.950161	$met2
+ $X=48.1505 $Y=38.775
Rd282	GNDA#113	GNDA#102	0.146773	$met2
+ $X=40.813 $Y=38.775
Rd283	GNDA#102	GNDA#93	0.424869	$met2
+ $X=39.2505 $Y=38.775
Rd284	GNDA#93	GNDA#84	0.424869	$met2
+ $X=29.9505 $Y=38.775
Rd285	GNDA#84	GNDA#871	0.196985	$met2
+ $X=28.2005 $Y=38.775
Rd286	GNDA#871	GNDA#704	1.245937	$met2
+ $X=26.55 $Y=38.775
Rd287	avC197#21	avC197#22	14.611826	$met2
+ $X=104.6005 $Y=37.275
Rd288	OUT#138	OUT#88	2.130238	$met2	$X=186.1505 $Y=35.775
Rd289	OUT#88	OUT#80	0.950161	$met2	$X=169.2505 $Y=35.775
Rd290	OUT#80	OUT#72	0.950161	$met2	$X=156.9505 $Y=35.775
Rd291	OUT#72	OUT#68	0.950161	$met2	$X=144.6505 $Y=35.775
Rd292	OUT#68	OUT#60	0.950161	$met2	$X=132.3505 $Y=35.775
Rd293	OUT#60	OUT#52	0.950161	$met2	$X=120.0505 $Y=35.775
Rd294	OUT#52	OUT#44	0.950161	$met2	$X=107.7505 $Y=35.775
Rd295	OUT#44	OUT#36	0.950161	$met2	$X=95.4505 $Y=35.775
Rd296	OUT#36	OUT#28	0.950161	$met2	$X=83.1505 $Y=35.775
Rd297	OUT#28	OUT#24	0.950161	$met2	$X=70.8505 $Y=35.775
Rd298	OUT#24	OUT#16	0.950161	$met2	$X=58.5505 $Y=35.775
Rd299	OUT#16	OUT#150	2.979975	$met2	$X=36.1505 $Y=35.775
Rd300	avC7#231	avC7#183	2.848652	$met2
+ $X=187.2005 $Y=34.275
Rd301	avC7#183	avC7#175	0.950161	$met2
+ $X=163.7505 $Y=34.275
Rd302	avC7#175	avC7#165	0.950161	$met2
+ $X=151.4505 $Y=34.275
Rd303	avC7#165	avC7#157	0.950161	$met2
+ $X=139.1505 $Y=34.275
Rd304	avC7#157	avC7#149	0.950161	$met2
+ $X=126.8505 $Y=34.275
Rd305	avC7#149	avC7#141	0.950161	$met2
+ $X=114.5505 $Y=34.275
Rd306	avC7#141	avC7#133	0.950161	$met2
+ $X=102.2505 $Y=34.275
Rd307	avC7#133	avC7#125	0.950161	$met2
+ $X=89.9505 $Y=34.275
Rd308	avC7#125	avC7#115	0.950161	$met2
+ $X=77.6505 $Y=34.275
Rd309	avC7#115	avC7#107	0.950161	$met2
+ $X=65.3505 $Y=34.275
Rd310	avC7#107	avC7#99	0.950161	$met2
+ $X=53.0505 $Y=34.275
Rd311	avC7#99	avC7#243	2.261561	$met2
+ $X=33.4005 $Y=34.275
Rd312	avC197#23	avC197#24	13.819826	$met2
+ $X=104.6005 $Y=25.975
Rd313	OUT#151	OUT#152	13.819826	$met2
+ $X=108.4005 $Y=24.475
Rd314	avC7#244	avC7#245	13.819826	$met2
+ $X=112.2005 $Y=22.975
Rd315	GNDA#585	GNDA#874	1.245937	$met2
+ $X=190.25 $Y=21.475
Rd316	GNDA#874	GNDA#875	0.556192	$met2
+ $X=188.6005 $Y=21.475
Rd317	GNDA#875	GNDA#876	0.950161	$met2
+ $X=176.9005 $Y=21.475
Rd318	GNDA#876	GNDA#877	0.950161	$met2
+ $X=164.6005 $Y=21.475
Rd319	GNDA#877	GNDA#878	0.950161	$met2
+ $X=152.3005 $Y=21.475
Rd320	GNDA#878	GNDA#879	0.950161	$met2
+ $X=140.0005 $Y=21.475
Rd321	GNDA#879	GNDA#880	0.950161	$met2
+ $X=127.7005 $Y=21.475
Rd322	GNDA#880	GNDA#881	0.950161	$met2
+ $X=115.4005 $Y=21.475
Rd323	GNDA#881	GNDA#882	0.950161	$met2
+ $X=103.1005 $Y=21.475
Rd324	GNDA#882	GNDA#883	0.950161	$met2
+ $X=90.8005 $Y=21.475
Rd325	GNDA#883	GNDA#884	0.950161	$met2
+ $X=78.5005 $Y=21.475
Rd326	GNDA#884	GNDA#885	0.950161	$met2
+ $X=66.2005 $Y=21.475
Rd327	GNDA#885	GNDA#886	0.950161	$met2
+ $X=53.9005 $Y=21.475
Rd328	GNDA#886	GNDA#887	1.015823	$met2
+ $X=41.6005 $Y=21.475
Rd329	GNDA#887	GNDA#888	0.621854	$met2
+ $X=28.2005 $Y=21.475
Rd330	GNDA#888	GNDA#707	1.245937	$met2
+ $X=26.55 $Y=21.475
Rd331	GNDA#890	GNDA#891	0.049146	$met2
+ $X=188.5125 $Y=16.125
Rd332	GNDA#891	GNDA#892	0.307464	$met2
+ $X=185.051 $Y=16.125
Rd333	GNDA#892	GNDA#893	0.478277	$met2
+ $X=175.375 $Y=16.125
Rd334	GNDA#893	GNDA#894	0.478277	$met2
+ $X=155.425 $Y=16.125
Rd335	GNDA#894	GNDA#895	0.478277	$met2
+ $X=135.475 $Y=16.125
Rd336	GNDA#895	GNDA#896	0.478277	$met2
+ $X=115.525 $Y=16.125
Rd337	GNDA#896	GNDA#897	0.478277	$met2
+ $X=95.575 $Y=16.125
Rd338	GNDA#897	GNDA#898	0.478277	$met2
+ $X=75.625 $Y=16.125
Rd339	GNDA#898	GNDA#899	0.478277	$met2
+ $X=55.675 $Y=16.125
Rd340	GNDA#899	GNDA#900	0.219960	$met2
+ $X=35.4125 $Y=16.125
Rd341	OUT#153	OUT#92	0.118800	$met2	$X=215.35 $Y=102.85
Rd342	VDDA#107	VDDA#84	0.396000	$met2
+ $X=215.8 $Y=190.65
Rd343	VDDA#109	VDDA#78	0.396000	$met2
+ $X=215.8 $Y=143.35
Rd344	avC10#9	avC10#8	0.594000	$met2
+ $X=265.25 $Y=107.6
Rd345	avC10#9	avC10#7	2.428592	$met2
+ $X=249.55 $Y=107.6
Rd346	avC10	avC10#9	0.594000	$met2	$X=265.25 $Y=108.075
Rd347	avC8#66	avC8#96	1.742772	$met2
+ $X=224.0205 $Y=167.1
Rd348	VDDA#111	VDDA#90	0.396000	$met2
+ $X=295.3 $Y=190.65
Rd349	VDDA#113	VDDA#72	0.396000	$met2
+ $X=295.3 $Y=143.35
Rd350	avC9#94	avC9#69	1.167271	$met2
+ $X=282.6755 $Y=187.35
Rd351	avC9#69	avC9#66	0.450076	$met2
+ $X=261.0505 $Y=187.35
Rd352	avC9#66	avC9#97	1.569779	$met2
+ $X=233.9255 $Y=187.35
Rd360	GNDA#374	GNDA#376	0.056571	$met2
+ $X=239.6 $Y=17.8125
Rd365	avC9#98	avC9#71	0.717195	$met2
+ $X=288.8255 $Y=146.65
Rd366	avC9#71	avC9#100	0.137220	$met2
+ $X=277.588 $Y=146.65
Rd367	avC9#100	avC9#64	1.209354	$met2
+ $X=259.1625 $Y=146.65
Rd368	avC9#64	avC9#102	1.119702	$met2
+ $X=227.7755 $Y=146.65
Rd369	avC9#100	avC9#103	1.356581	$met2
+ $X=275.7 $Y=137.225
Rd370	avC9#103	avC9#73	1.400707	$met2
+ $X=275.7 $Y=127.225
Rd371	avC9#103	avC9#67	0.752190	$met2
+ $X=270.6625 $Y=128.3
Rd372	avC9#67	avC9#14	0.594000	$met2
+ $X=265.25 $Y=128.3
Rd373	OUT#100	OUT#98	0.491895	$met2	$X=298.6005 $Y=111.2
Rd374	OUT#98	OUT#157	0.047948	$met2	$X=296.6 $Y=111.2
Rd375	OUT#157	OUT#96	0.047948	$met2	$X=294.6 $Y=111.2
Rd376	OUT#96	OUT#94	0.491895	$met2	$X=290.6005 $Y=111.2
Rd377	VDDA#115	VDDA#116	0.154498	$met2
+ $X=304.862 $Y=184.55
Rd378	VDDA#116	VDDA	0.244881	$met2	$X=309.125 $Y=190.05
Rd379	VDDA	VDDA#117	1.792540	$met2	$X=167.9875 $Y=199.55
Rd380	VDDA#117	VDDA#118	0.206129	$met2
+ $X=24.9125 $Y=199.55
Rd381	VDDA#115	VDDA#119	0.278096	$met2
+ $X=299.5755 $Y=184.55
Rd382	VDDA#119	VDDA#120	0.128071	$met2
+ $X=293.0755 $Y=184.55
Rd383	VDDA#120	VDDA#121	0.402507	$met2
+ $X=286.3005 $Y=184.55
Rd384	VDDA#121	VDDA#122	0.429036	$met2
+ $X=275.413 $Y=184.55
Rd385	VDDA#122	VDDA#123	0.450076	$met2
+ $X=262.9255 $Y=184.55
Rd386	VDDA#123	VDDA#124	0.471117	$met2
+ $X=249.863 $Y=184.55
Rd387	VDDA#124	VDDA#125	0.429036	$met2
+ $X=238.513 $Y=184.55
Rd388	VDDA#125	VDDA#126	0.068609	$met2
+ $X=232.175 $Y=184.55
Rd389	VDDA#126	VDDA#127	0.402507	$met2
+ $X=224.8005 $Y=184.55
Rd390	VDDA#127	VDDA#128	0.128071	$met2
+ $X=218.0255 $Y=184.55
Rd391	VDDA#128	VDDA#83	0.872096	$met2
+ $X=211.5255 $Y=184.55
Rd392	VDDA#116	VDDA#130	0.438230	$met2
+ $X=309.125 $Y=167
Rd393	VDDA#130	VDDA#131	0.336241	$met2
+ $X=309.125 $Y=137.3625
Rd394	VDDA#131	VDDA#132	0.094245	$met2
+ $X=309.125 $Y=117.663
Rd395	VDDA#132	VDDA#133	0.391131	$met2	$X=308.7 $Y=115
Rd396	VDDA#133	VDDA#134	0.371973	$met2
+ $X=309.125 $Y=70.3495
Rd397	VDDA#134	VDDA#135	0.378190	$met2
+ $X=309.125 $Y=43.5755
Rd398	VDDA#117	VDDA#136	0.240148	$met2
+ $X=39.975 $Y=192.6255
Rd399	VDDA#130	VDDA#137	0.154498	$met2
+ $X=304.8625 $Y=149.45
Rd400	VDDA#137	VDDA#138	0.278096	$met2
+ $X=299.5755 $Y=149.45
Rd401	VDDA#138	VDDA#139	0.128071	$met2
+ $X=293.0755 $Y=149.45
Rd402	VDDA#139	VDDA#43	0.402507	$met2
+ $X=286.3005 $Y=149.45
Rd403	VDDA#43	VDDA#141	0.450076	$met2
+ $X=274.6505 $Y=149.45
Rd404	VDDA#141	VDDA#142	0.450076	$met2
+ $X=262.3505 $Y=149.45
Rd405	VDDA#142	VDDA#17	0.429036	$met2
+ $X=250.813 $Y=149.45
Rd406	VDDA#17	VDDA#144	0.450076	$met2
+ $X=238.3255 $Y=149.45
Rd407	VDDA#144	VDDA#145	0.068609	$met2
+ $X=232.175 $Y=149.45
Rd408	VDDA#145	VDDA#10	0.402507	$met2
+ $X=224.8005 $Y=149.45
Rd409	VDDA#10	VDDA#147	0.128071	$met2
+ $X=218.0255 $Y=149.45
Rd410	VDDA#147	VDDA#79	0.872096	$met2
+ $X=211.5255 $Y=149.45
Rd411	VDDA#132	VDDA#65	0.118235	$met2
+ $X=304.725 $Y=115
Rd412	VDDA#65	VDDA#63	0.095895	$met2
+ $X=300.6005 $Y=115
Rd413	VDDA#63	VDDA#61	0.095895	$met2
+ $X=296.6005 $Y=115
Rd414	VDDA#61	VDDA#47	0.095895	$met2
+ $X=292.6005 $Y=115
Rd415	VDDA#47	VDDA#45	0.095895	$met2
+ $X=288.6005 $Y=115
Rd416	VDDA#45	VDDA#102	0.542240	$met2
+ $X=283.5505 $Y=115
Rd704	GNDA#379	GNDA#875	0.118800	$met2
+ $X=183.05 $Y=21.475
Rd705	GNDA#389	GNDA#876	0.118800	$met2
+ $X=170.75 $Y=21.475
Rd706	GNDA#397	GNDA#877	0.118800	$met2
+ $X=158.45 $Y=21.475
Rd707	GNDA#405	GNDA#878	0.118800	$met2
+ $X=146.15 $Y=21.475
Rd708	GNDA#413	GNDA#879	0.118800	$met2
+ $X=133.85 $Y=21.475
Rd709	GNDA#421	GNDA#880	0.118800	$met2
+ $X=121.55 $Y=21.475
Rd710	GNDA#430	GNDA#881	0.118800	$met2
+ $X=109.25 $Y=21.475
Rd711	GNDA#438	GNDA#882	0.118800	$met2
+ $X=96.95 $Y=21.475
Rd712	GNDA#445	GNDA#883	0.118800	$met2
+ $X=84.65 $Y=21.475
Rd713	GNDA#454	GNDA#884	0.118800	$met2
+ $X=72.35 $Y=21.475
Rd714	GNDA#462	GNDA#885	0.118800	$met2
+ $X=60.05 $Y=21.475
Rd715	GNDA#471	GNDA#886	0.118800	$met2
+ $X=47.75 $Y=21.475
Rd716	GNDA#480	GNDA#887	0.108000	$met2
+ $X=34.6 $Y=21.475
Rd718	GNDA#367	GNDA#891	0.066000	$met2
+ $X=188.2 $Y=16.125
Rd719	GNDA#387	GNDA#892	0.018857	$met2
+ $X=175.375 $Y=16.125
Rd720	GNDA#399	GNDA#893	0.018857	$met2
+ $X=155.425 $Y=16.125
Rd721	GNDA#412	GNDA#894	0.018857	$met2
+ $X=135.475 $Y=16.125
Rd722	GNDA#423	GNDA#895	0.018857	$met2
+ $X=115.525 $Y=16.125
Rd723	GNDA#440	GNDA#896	0.018857	$met2
+ $X=95.575 $Y=16.125
Rd724	GNDA#453	GNDA#897	0.018857	$met2
+ $X=75.625 $Y=16.125
Rd725	GNDA#464	GNDA#898	0.018857	$met2
+ $X=55.675 $Y=16.125
Rd726	GNDA#477	GNDA#899	0.018857	$met2
+ $X=35.725 $Y=16.125
Rd737	GNDA#372	GNDA#374	0.069882	$met2
+ $X=287.575 $Y=17.8125
Rd738	GNDA#373	GNDA#374	0.056571	$met2
+ $X=269.525 $Y=17.8125
Rd739	GNDA#375	GNDA#374	0.056571	$met2
+ $X=249.575 $Y=17.8125
Rd749	VDDA#92	VDDA#115	0.594000	$met2
+ $X=302.9 $Y=184.55
Rd750	VDDA#49	VDDA#120	0.594000	$met2
+ $X=291.8 $Y=184.55
Rd751	VDDA#51	VDDA#121	0.594000	$met2
+ $X=280.8 $Y=184.55
Rd752	VDDA#54	VDDA#122	0.594000	$met2
+ $X=269.075 $Y=184.55
Rd753	VDDA#32	VDDA#123	0.594000	$met2
+ $X=256.775 $Y=184.55
Rd754	VDDA#20	VDDA#124	0.594000	$met2
+ $X=243.9 $Y=184.55
Rd755	VDDA#23	VDDA#125	0.594000	$met2
+ $X=232.175 $Y=184.55
Rd756	VDDA#24	VDDA#126	0.594000	$met2
+ $X=230.3 $Y=184.55
Rd757	VDDA#26	VDDA#127	0.594000	$met2
+ $X=219.3 $Y=184.55
Rd759	VDDA#96	VDDA#131	0.148500	$met2
+ $X=308.7 $Y=122.55
Rd760	VDDA#97	VDDA#132	0.396000	$met2	$X=308.7 $Y=115
Rd761	VDDA#70	VDDA#137	0.594000	$met2
+ $X=302.9 $Y=149.45
Rd762	VDDA#58	VDDA#139	0.594000	$met2
+ $X=291.8 $Y=149.45
Rd764	VDDA#35	VDDA#141	0.594000	$met2
+ $X=268.5 $Y=149.45
Rd765	VDDA#38	VDDA#142	0.594000	$met2
+ $X=256.2 $Y=149.45
Rd767	VDDA#12	VDDA#144	0.594000	$met2
+ $X=232.175 $Y=149.45
Rd768	VDDA#13	VDDA#145	0.594000	$met2
+ $X=230.3 $Y=149.45
Rd584	GNDA#196	GNDA#815	0.594000	$met2
+ $X=165 $Y=64.375
Rd585	GNDA#199	GNDA#816	0.594000	$met2
+ $X=152.7 $Y=64.375
Rd586	GNDA#201	GNDA#817	0.594000	$met2
+ $X=140.4 $Y=64.375
Rd587	GNDA#204	GNDA#818	0.594000	$met2
+ $X=128.1 $Y=64.375
Rd588	GNDA#207	GNDA#819	0.594000	$met2
+ $X=115.8 $Y=64.375
Rd589	GNDA#215	GNDA#820	0.594000	$met2
+ $X=103.5 $Y=64.375
Rd590	GNDA#218	GNDA#821	0.594000	$met2
+ $X=91.2 $Y=64.375
Rd591	GNDA#222	GNDA#822	0.594000	$met2
+ $X=78.9 $Y=64.375
Rd592	GNDA#226	GNDA#823	0.594000	$met2
+ $X=66.6 $Y=64.375
Rd593	GNDA#230	GNDA#824	0.594000	$met2
+ $X=54.3 $Y=64.375
Rd625	GNDA#235	GNDA#836	0.594000	$met2
+ $X=165 $Y=51.575
Rd626	GNDA#238	GNDA#837	0.594000	$met2
+ $X=152.7 $Y=51.575
Rd627	GNDA#240	GNDA#838	0.594000	$met2
+ $X=140.4 $Y=51.575
Rd628	GNDA#243	GNDA#839	0.594000	$met2
+ $X=128.1 $Y=51.575
Rd629	GNDA#246	GNDA#840	0.594000	$met2
+ $X=115.8 $Y=51.575
Rd630	GNDA#254	GNDA#841	0.594000	$met2
+ $X=103.5 $Y=51.575
Rd631	GNDA#257	GNDA#842	0.594000	$met2
+ $X=91.2 $Y=51.575
Rd632	GNDA#261	GNDA#843	0.594000	$met2
+ $X=78.9 $Y=51.575
Rd633	GNDA#265	GNDA#844	0.594000	$met2
+ $X=66.6 $Y=51.575
Rd634	GNDA#269	GNDA#845	0.594000	$met2
+ $X=54.3 $Y=51.575
Rd430	GNDA#675	GNDA#738	0.018857	$met2
+ $X=175.375 $Y=83.975
Rd431	GNDA#677	GNDA#739	0.018857	$met2
+ $X=155.425 $Y=83.975
Rd432	GNDA#679	GNDA#740	0.018857	$met2
+ $X=135.475 $Y=83.975
Rd433	GNDA#681	GNDA#741	0.018857	$met2
+ $X=115.525 $Y=83.975
Rd434	GNDA#684	GNDA#742	0.018857	$met2
+ $X=95.575 $Y=83.975
Rd435	GNDA#686	GNDA#743	0.018857	$met2
+ $X=75.625 $Y=83.975
Rd436	GNDA#688	GNDA#744	0.018857	$met2
+ $X=55.675 $Y=83.975
Rd666	GNDA#274	GNDA#857	0.594000	$met2
+ $X=165 $Y=38.775
Rd667	GNDA#277	GNDA#858	0.594000	$met2
+ $X=152.7 $Y=38.775
Rd668	GNDA#279	GNDA#859	0.594000	$met2
+ $X=140.4 $Y=38.775
Rd669	GNDA#282	GNDA#860	0.594000	$met2
+ $X=128.1 $Y=38.775
Rd670	GNDA#285	GNDA#861	0.594000	$met2
+ $X=115.8 $Y=38.775
Rd671	GNDA#293	GNDA#862	0.594000	$met2
+ $X=103.5 $Y=38.775
Rd672	GNDA#296	GNDA#863	0.594000	$met2
+ $X=91.2 $Y=38.775
Rd673	GNDA#300	GNDA#864	0.594000	$met2
+ $X=78.9 $Y=38.775
Rd674	GNDA#304	GNDA#865	0.594000	$met2
+ $X=66.6 $Y=38.775
Rd675	GNDA#308	GNDA#866	0.594000	$met2
+ $X=54.3 $Y=38.775
Re1	avC7#89	avC7#90	5.400893	$met1
+ $X=26.15 $Y=126.4005
Re2	GNDA#75	GNDA#76	31.069868	$met1	$X=29.1 $Y=80.2
Re3	GNDA#77	GNDA#78	7.032060	$met1	$X=29.1 $Y=73.8
Re4	GNDA#79	GNDA#80	7.032060	$met1	$X=29.1 $Y=61
Re5	GNDA#81	GNDA#82	7.032060	$met1	$X=29.1 $Y=48.2
Re6	GNDA#83	GNDA#84	7.032060	$met1	$X=29.1 $Y=35.4
Re7	avC7#91	avC7#92	5.400893	$met1
+ $X=30.15 $Y=126.4005
Re8	avC197	avC197#2	6.174385	$met1	$X=31.45 $Y=124.5005
Re9	avC198	avC198#2	6.155877	$met1	$X=33.45 $Y=122.6005
Re10	avC197#3	avC197#4	5.778385	$met1
+ $X=35.45 $Y=124.5005
Re11	BIAS#8	BIAS#10	0.393743	$met1	$X=33.45 $Y=134.65
Re12	BIAS#10	BIAS#4	0.059107	$met1	$X=28.8005 $Y=134.65
Re13	BIAS#4	BIAS#12	5.489066	$met1	$X=28.15 $Y=132.4
Re14	GNDA#85	GNDA#2	0.312859	$met1	$X=34.6 $Y=81.175
Re15	GNDA#87	GNDA#3	0.312859	$met1	$X=34.6 $Y=77.175
Re16	GNDA#89	GNDA#5	0.312859	$met1	$X=34.6 $Y=64.375
Re17	GNDA#91	GNDA#7	0.312859	$met1	$X=34.6 $Y=51.575
Re18	GNDA#93	GNDA#9	0.312859	$met1	$X=34.6 $Y=38.775
Re19	GNDA#95	GNDA#96	7.032060	$met1	$X=40.1 $Y=73.8
Re20	GNDA#97	GNDA#98	7.032060	$met1	$X=40.1 $Y=61
Re21	GNDA#99	GNDA#100	7.032060	$met1	$X=40.1 $Y=48.2
Re22	GNDA#101	GNDA#102	7.032060	$met1	$X=40.1 $Y=35.4
Re23	GNDA#103	GNDA#105	29.828880	$met1
+ $X=40.75 $Y=79.425
Re24	GNDA#105	GNDA#106	1.371000	$met1
+ $X=40.1 $Y=80.2375
Re25	GNDA#104	GNDA#105	29.700001	$met1
+ $X=40.1 $Y=79.325
Re26	GNDA#107	GNDA#108	6.464721	$met1	$X=41.4 $Y=73.8
Re27	GNDA#109	GNDA#110	6.464721	$met1	$X=41.4 $Y=61
Re28	GNDA#111	GNDA#112	6.464721	$met1	$X=41.4 $Y=48.2
Re29	GNDA#113	GNDA#114	6.464721	$met1	$X=41.4 $Y=35.4
Re30	GNDA#115	GNDA#14	0.312859	$met1
+ $X=46.9 $Y=81.175
Re31	avC7#93	avC7	0.312859	$met1	$X=46.9 $Y=72.675
Re32	avC7#95	avC7#3	0.312859	$met1	$X=46.9 $Y=59.875
Re33	avC7#97	avC7#5	0.312859	$met1	$X=46.9 $Y=47.075
Re34	avC7#99	avC7#7	0.312859	$met1	$X=46.9 $Y=34.275
Re35	OUT#9	OUT#10	6.711115	$met1	$X=52.4 $Y=72.3
Re36	OUT#11	OUT#12	6.711115	$met1	$X=52.4 $Y=59.5
Re37	OUT#13	OUT#14	6.711115	$met1	$X=52.4 $Y=46.7
Re38	OUT#15	OUT#16	6.711115	$met1	$X=52.4 $Y=33.9
Re39	GNDA#117	GNDA#119	29.828880	$met1
+ $X=53.05 $Y=79.425
Re40	GNDA#119	GNDA#120	1.371000	$met1
+ $X=52.4 $Y=80.2375
Re41	GNDA#118	GNDA#119	29.700001	$met1
+ $X=52.4 $Y=79.325
Re42	GNDA#121	GNDA#122	6.464721	$met1	$X=53.7 $Y=73.8
Re43	GNDA#123	GNDA#18	0.312859	$met1
+ $X=59.2 $Y=81.175
Re44	avC7#101	avC7#9	0.312859	$met1	$X=59.2 $Y=72.675
Re45	avC7#103	avC7#11	0.312859	$met1
+ $X=59.2 $Y=59.875
Re46	avC7#105	avC7#13	0.312859	$met1
+ $X=59.2 $Y=47.075
Re47	avC7#107	avC7#15	0.312859	$met1
+ $X=59.2 $Y=34.275
Re48	OUT#17	OUT#18	6.711115	$met1	$X=64.7 $Y=72.3
Re49	OUT#19	OUT#20	6.711115	$met1	$X=64.7 $Y=59.5
Re50	OUT#21	OUT#22	6.711115	$met1	$X=64.7 $Y=46.7
Re51	OUT#23	OUT#24	6.711115	$met1	$X=64.7 $Y=33.9
Re52	GNDA#125	GNDA#127	29.828880	$met1
+ $X=65.35 $Y=79.425
Re53	GNDA#127	GNDA#128	1.371000	$met1
+ $X=64.7 $Y=80.2375
Re54	GNDA#126	GNDA#127	29.700001	$met1
+ $X=64.7 $Y=79.325
Re55	avC9#16	avC9#17	1.760693	$met1
+ $X=66 $Y=183.787
Re56	avC9#16	avC9#15	2.716816	$met1
+ $X=66 $Y=171.7005
Re57	avC9#15	avC9#16	2.700000	$met1	$X=66 $Y=176.1
Re58	avC8#13	avC8#14	3.931816	$met1	$X=66 $Y=144.3
Re59	avC8#14	avC8#15	2.118317	$met1
+ $X=66 $Y=120.613
Re60	avC8#13	avC8#14	1.485000	$met1	$X=66 $Y=131.9
Re61	GNDA#129	GNDA#130	6.464721	$met1	$X=66 $Y=73.8
Re62	avC198#4	avC198#5	1.204389	$met1
+ $X=72 $Y=180.987
Re63	avC198#4	avC198#3	2.716816	$met1
+ $X=72 $Y=171.7005
Re64	avC198#3	avC198#4	2.700000	$met1	$X=72 $Y=176.1
Re65	avC198#6	avC198#7	3.931816	$met1	$X=72 $Y=144.3
Re66	avC198#7	avC198#8	1.562013	$met1
+ $X=72 $Y=123.413
Re67	avC198#6	avC198#7	1.485000	$met1	$X=72 $Y=131.9
Re68	avC8#17	avC8#18	1.482541	$met1
+ $X=73.3 $Y=182.387
Re69	avC8#17	avC8#16	2.716816	$met1
+ $X=73.3 $Y=171.7005
Re70	avC8#16	avC8#17	2.700000	$met1
+ $X=73.3 $Y=176.1
Re71	avC9#18	avC9#19	3.931816	$met1
+ $X=73.3 $Y=144.3
Re72	avC9#19	avC9#20	1.840165	$met1
+ $X=73.3 $Y=122.013
Re73	avC9#18	avC9#19	1.485000	$met1
+ $X=73.3 $Y=131.9
Re74	GNDA#131	GNDA#25	0.312859	$met1
+ $X=71.5 $Y=81.175
Re75	avC7#109	avC7#17	0.312859	$met1
+ $X=71.5 $Y=72.675
Re76	avC7#111	avC7#19	0.312859	$met1
+ $X=71.5 $Y=59.875
Re77	avC7#113	avC7#21	0.312859	$met1
+ $X=71.5 $Y=47.075
Re78	avC7#115	avC7#23	0.312859	$met1
+ $X=71.5 $Y=34.275
Re79	OUT#25	OUT#26	6.711115	$met1	$X=77 $Y=72.3
Re80	avC7#117	avC7#118	6.550643	$met1	$X=77 $Y=58.75
Re81	avC197#5	avC197#6	6.871588	$met1	$X=77 $Y=47.45
Re82	OUT#27	OUT#28	6.711115	$met1	$X=77 $Y=33.9
Re83	GNDA#133	GNDA#135	29.828880	$met1
+ $X=77.65 $Y=79.425
Re84	GNDA#135	GNDA#136	1.371000	$met1
+ $X=77 $Y=80.2375
Re85	GNDA#134	GNDA#135	29.700001	$met1	$X=77 $Y=79.325
Re86	avC198#10	avC198#11	1.204389	$met1
+ $X=79.3 $Y=180.987
Re87	avC198#10	avC198#9	2.716816	$met1
+ $X=79.3 $Y=171.7005
Re88	avC198#9	avC198#10	2.700000	$met1
+ $X=79.3 $Y=176.1
Re89	avC198#12	avC198#13	3.931816	$met1
+ $X=79.3 $Y=144.3
Re90	avC198#13	avC198#14	1.562013	$met1
+ $X=79.3 $Y=123.413
Re91	avC198#12	avC198#13	1.485000	$met1
+ $X=79.3 $Y=131.9
Re92	GNDA#137	GNDA#138	6.464721	$met1	$X=78.3 $Y=73.8
Re93	avC9#22	avC9#23	1.760693	$met1
+ $X=80.6 $Y=183.787
Re94	avC9#22	avC9#21	2.716816	$met1
+ $X=80.6 $Y=171.7005
Re95	avC9#21	avC9#22	2.700000	$met1
+ $X=80.6 $Y=176.1
Re96	avC8#19	avC8#20	3.931816	$met1
+ $X=80.6 $Y=144.3
Re97	avC8#20	avC8#21	2.118317	$met1
+ $X=80.6 $Y=120.613
Re98	avC8#19	avC8#20	1.485000	$met1
+ $X=80.6 $Y=131.9
Re99	avC198#16	avC198#17	1.204389	$met1
+ $X=86.6 $Y=180.987
Re100	avC198#16	avC198#15	2.716816	$met1
+ $X=86.6 $Y=171.7005
Re101	avC198#15	avC198#16	2.700000	$met1
+ $X=86.6 $Y=176.1
Re102	avC198#18	avC198#19	3.931816	$met1
+ $X=86.6 $Y=144.3
Re103	avC198#19	avC198#20	1.562013	$met1
+ $X=86.6 $Y=123.413
Re104	avC198#18	avC198#19	1.485000	$met1
+ $X=86.6 $Y=131.9
Re105	GNDA#139	GNDA#29	0.312859	$met1
+ $X=83.8 $Y=81.175
Re106	avC7#119	avC7#25	0.312859	$met1
+ $X=83.8 $Y=72.675
Re107	avC7#121	avC7#27	0.312859	$met1
+ $X=83.8 $Y=59.875
Re108	avC7#123	avC7#29	0.312859	$met1
+ $X=83.8 $Y=47.075
Re109	avC7#125	avC7#31	0.312859	$met1
+ $X=83.8 $Y=34.275
Re110	avC8#23	avC8#24	1.482541	$met1
+ $X=87.9 $Y=182.387
Re111	avC8#23	avC8#22	2.716816	$met1
+ $X=87.9 $Y=171.7005
Re112	avC8#22	avC8#23	2.700000	$met1
+ $X=87.9 $Y=176.1
Re113	avC9#24	avC9#25	3.931816	$met1
+ $X=87.9 $Y=144.3
Re114	avC9#25	avC9#26	1.840165	$met1
+ $X=87.9 $Y=122.013
Re115	avC9#24	avC9#25	1.485000	$met1
+ $X=87.9 $Y=131.9
Re116	OUT#29	OUT#30	6.711115	$met1	$X=89.3 $Y=72.3
Re117	OUT#31	OUT#32	6.711115	$met1	$X=89.3 $Y=59.5
Re118	OUT#33	OUT#34	6.711115	$met1	$X=89.3 $Y=46.7
Re119	OUT#35	OUT#36	6.711115	$met1	$X=89.3 $Y=33.9
Re120	GNDA#141	GNDA#143	29.828880	$met1
+ $X=89.95 $Y=79.425
Re121	GNDA#143	GNDA#144	1.371000	$met1
+ $X=89.3 $Y=80.2375
Re122	GNDA#142	GNDA#143	29.700001	$met1
+ $X=89.3 $Y=79.325
Re123	GNDA#145	GNDA#146	6.464721	$met1	$X=90.6 $Y=73.8
Re124	avC198#22	avC198#23	1.204389	$met1
+ $X=93.9 $Y=180.987
Re125	avC198#22	avC198#21	2.716816	$met1
+ $X=93.9 $Y=171.7005
Re126	avC198#21	avC198#22	2.700000	$met1
+ $X=93.9 $Y=176.1
Re127	avC198#24	avC198#25	3.931816	$met1
+ $X=93.9 $Y=144.3
Re128	avC198#25	avC198#26	1.562013	$met1
+ $X=93.9 $Y=123.413
Re129	avC198#24	avC198#25	1.485000	$met1
+ $X=93.9 $Y=131.9
Re130	avC9#28	avC9#29	1.760693	$met1
+ $X=95.2 $Y=183.787
Re131	avC9#28	avC9#27	2.716816	$met1
+ $X=95.2 $Y=171.7005
Re132	avC9#27	avC9#28	2.700000	$met1
+ $X=95.2 $Y=176.1
Re133	avC8#25	avC8#26	3.931816	$met1
+ $X=95.2 $Y=144.3
Re134	avC8#26	avC8#27	2.118317	$met1
+ $X=95.2 $Y=120.613
Re135	avC8#25	avC8#26	1.485000	$met1
+ $X=95.2 $Y=131.9
Re136	GNDA#147	GNDA#33	0.312859	$met1
+ $X=96.1 $Y=81.175
Re137	avC7#127	avC7#33	0.312859	$met1
+ $X=96.1 $Y=72.675
Re138	avC7#129	avC7#35	0.312859	$met1
+ $X=96.1 $Y=59.875
Re139	avC7#131	avC7#37	0.312859	$met1
+ $X=96.1 $Y=47.075
Re140	avC7#133	avC7#39	0.312859	$met1
+ $X=96.1 $Y=34.275
Re141	avC198#28	avC198#29	1.204389	$met1
+ $X=101.2 $Y=180.987
Re142	avC198#28	avC198#27	2.716816	$met1
+ $X=101.2 $Y=171.7005
Re143	avC198#27	avC198#28	2.700000	$met1
+ $X=101.2 $Y=176.1
Re144	avC198#30	avC198#31	3.931816	$met1
+ $X=101.2 $Y=144.3
Re145	avC198#31	avC198#32	1.562013	$met1
+ $X=101.2 $Y=123.413
Re146	avC198#30	avC198#31	1.485000	$met1
+ $X=101.2 $Y=131.9
Re147	OUT#37	OUT#38	6.711115	$met1	$X=101.6 $Y=72.3
Re148	OUT#39	OUT#40	6.711115	$met1	$X=101.6 $Y=59.5
Re149	OUT#41	OUT#42	6.711115	$met1	$X=101.6 $Y=46.7
Re150	OUT#43	OUT#44	6.711115	$met1	$X=101.6 $Y=33.9
Re151	avC8#29	avC8#30	1.482541	$met1
+ $X=102.5 $Y=182.387
Re152	avC8#29	avC8#28	2.716816	$met1
+ $X=102.5 $Y=171.7005
Re153	avC8#28	avC8#29	2.700000	$met1
+ $X=102.5 $Y=176.1
Re154	avC9#30	avC9#31	3.931816	$met1
+ $X=102.5 $Y=144.3
Re155	avC9#31	avC9#32	1.840165	$met1
+ $X=102.5 $Y=122.013
Re156	avC9#30	avC9#31	1.485000	$met1
+ $X=102.5 $Y=131.9
Re157	GNDA#149	GNDA#151	29.828880	$met1
+ $X=102.25 $Y=79.425
Re158	GNDA#151	GNDA#152	1.371000	$met1
+ $X=101.6 $Y=80.2375
Re159	GNDA#150	GNDA#151	29.700001	$met1
+ $X=101.6 $Y=79.325
Re160	GNDA#153	GNDA#154	6.464721	$met1
+ $X=102.9 $Y=73.8
Re161	avC198#34	avC198#35	1.204389	$met1
+ $X=108.5 $Y=180.987
Re162	avC198#34	avC198#33	2.716816	$met1
+ $X=108.5 $Y=171.7005
Re163	avC198#33	avC198#34	2.700000	$met1
+ $X=108.5 $Y=176.1
Re164	avC198#36	avC198#37	3.931816	$met1
+ $X=108.5 $Y=144.3
Re165	avC198#37	avC198#38	1.562013	$met1
+ $X=108.5 $Y=123.413
Re166	avC198#36	avC198#37	1.485000	$met1
+ $X=108.5 $Y=131.9
Re167	avC9#34	avC9#35	1.760693	$met1
+ $X=109.8 $Y=183.787
Re168	avC9#34	avC9#33	2.716816	$met1
+ $X=109.8 $Y=171.7005
Re169	avC9#33	avC9#34	2.700000	$met1
+ $X=109.8 $Y=176.1
Re170	avC8#31	avC8#32	3.931816	$met1
+ $X=109.8 $Y=144.3
Re171	avC8#32	avC8#33	2.118317	$met1
+ $X=109.8 $Y=120.613
Re172	avC8#31	avC8#32	1.485000	$met1
+ $X=109.8 $Y=131.9
Re173	GNDA#155	GNDA#37	0.312859	$met1
+ $X=108.4 $Y=81.175
Re174	avC7#135	avC7#41	0.312859	$met1
+ $X=108.4 $Y=72.675
Re175	avC7#137	avC7#43	0.312859	$met1
+ $X=108.4 $Y=59.875
Re176	avC7#139	avC7#45	0.312859	$met1
+ $X=108.4 $Y=47.075
Re177	avC7#141	avC7#47	0.312859	$met1
+ $X=108.4 $Y=34.275
Re178	OUT#45	OUT#46	6.711115	$met1	$X=113.9 $Y=72.3
Re179	OUT#47	OUT#48	6.711115	$met1	$X=113.9 $Y=59.5
Re180	OUT#49	OUT#50	6.711115	$met1	$X=113.9 $Y=46.7
Re181	OUT#51	OUT#52	6.711115	$met1	$X=113.9 $Y=33.9
Re182	GNDA#157	GNDA#159	29.828880	$met1
+ $X=114.55 $Y=79.425
Re183	GNDA#159	GNDA#160	1.371000	$met1
+ $X=113.9 $Y=80.2375
Re184	GNDA#158	GNDA#159	29.700001	$met1
+ $X=113.9 $Y=79.325
Re185	avC198#40	avC198#41	1.204389	$met1
+ $X=115.8 $Y=180.987
Re186	avC198#40	avC198#39	2.716816	$met1
+ $X=115.8 $Y=171.7005
Re187	avC198#39	avC198#40	2.700000	$met1
+ $X=115.8 $Y=176.1
Re188	avC198#42	avC198#43	3.931816	$met1
+ $X=115.8 $Y=144.3
Re189	avC198#43	avC198#44	1.562013	$met1
+ $X=115.8 $Y=123.413
Re190	avC198#42	avC198#43	1.485000	$met1
+ $X=115.8 $Y=131.9
Re191	GNDA#161	GNDA#162	6.464721	$met1
+ $X=115.2 $Y=73.8
Re192	avC9#37	avC9#38	1.760693	$met1
+ $X=117.1 $Y=183.787
Re193	avC9#37	avC9#36	2.716816	$met1
+ $X=117.1 $Y=171.7005
Re194	avC9#36	avC9#37	2.700000	$met1
+ $X=117.1 $Y=176.1
Re195	avC8#34	avC8#35	3.931816	$met1
+ $X=117.1 $Y=144.3
Re196	avC8#35	avC8#36	2.118317	$met1
+ $X=117.1 $Y=120.613
Re197	avC8#34	avC8#35	1.485000	$met1
+ $X=117.1 $Y=131.9
Re198	avC198#46	avC198#47	1.204389	$met1
+ $X=123.1 $Y=180.987
Re199	avC198#46	avC198#45	2.716816	$met1
+ $X=123.1 $Y=171.7005
Re200	avC198#45	avC198#46	2.700000	$met1
+ $X=123.1 $Y=176.1
Re201	avC198#48	avC198#49	3.931816	$met1
+ $X=123.1 $Y=144.3
Re202	avC198#49	avC198#50	1.562013	$met1
+ $X=123.1 $Y=123.413
Re203	avC198#48	avC198#49	1.485000	$met1
+ $X=123.1 $Y=131.9
Re204	avC8#38	avC8#39	1.482541	$met1
+ $X=124.4 $Y=182.387
Re205	avC8#38	avC8#37	2.716816	$met1
+ $X=124.4 $Y=171.7005
Re206	avC8#37	avC8#38	2.700000	$met1
+ $X=124.4 $Y=176.1
Re207	avC9#39	avC9#40	3.931816	$met1
+ $X=124.4 $Y=144.3
Re208	avC9#40	avC9#41	1.840165	$met1
+ $X=124.4 $Y=122.013
Re209	avC9#39	avC9#40	1.485000	$met1
+ $X=124.4 $Y=131.9
Re210	GNDA#163	GNDA#41	0.312859	$met1
+ $X=120.7 $Y=81.175
Re211	avC7#143	avC7#49	0.312859	$met1
+ $X=120.7 $Y=72.675
Re212	avC7#145	avC7#51	0.312859	$met1
+ $X=120.7 $Y=59.875
Re213	avC7#147	avC7#53	0.312859	$met1
+ $X=120.7 $Y=47.075
Re214	avC7#149	avC7#55	0.312859	$met1
+ $X=120.7 $Y=34.275
Re215	OUT#53	OUT#54	6.711115	$met1	$X=126.2 $Y=72.3
Re216	OUT#55	OUT#56	6.711115	$met1	$X=126.2 $Y=59.5
Re217	OUT#57	OUT#58	6.711115	$met1	$X=126.2 $Y=46.7
Re218	OUT#59	OUT#60	6.711115	$met1	$X=126.2 $Y=33.9
Re219	GNDA#165	GNDA#167	29.828880	$met1
+ $X=126.85 $Y=79.425
Re220	GNDA#167	GNDA#168	1.371000	$met1
+ $X=126.2 $Y=80.2375
Re221	GNDA#166	GNDA#167	29.700001	$met1
+ $X=126.2 $Y=79.325
Re222	GNDA#169	GNDA#170	6.464721	$met1
+ $X=127.5 $Y=73.8
Re223	avC198#52	avC198#53	1.204389	$met1
+ $X=130.4 $Y=180.987
Re224	avC198#52	avC198#51	2.716816	$met1
+ $X=130.4 $Y=171.7005
Re225	avC198#51	avC198#52	2.700000	$met1
+ $X=130.4 $Y=176.1
Re226	avC198#54	avC198#55	3.931816	$met1
+ $X=130.4 $Y=144.3
Re227	avC198#55	avC198#56	1.562013	$met1
+ $X=130.4 $Y=123.413
Re228	avC198#54	avC198#55	1.485000	$met1
+ $X=130.4 $Y=131.9
Re229	avC9#43	avC9#44	1.760693	$met1
+ $X=131.7 $Y=183.787
Re230	avC9#43	avC9#42	2.716816	$met1
+ $X=131.7 $Y=171.7005
Re231	avC9#42	avC9#43	2.700000	$met1
+ $X=131.7 $Y=176.1
Re232	avC8#40	avC8#41	3.931816	$met1
+ $X=131.7 $Y=144.3
Re233	avC8#41	avC8#42	2.118317	$met1
+ $X=131.7 $Y=120.613
Re234	avC8#40	avC8#41	1.485000	$met1
+ $X=131.7 $Y=131.9
Re235	GNDA#171	GNDA#45	0.312859	$met1
+ $X=133 $Y=81.175
Re236	avC7#151	avC7#57	0.312859	$met1
+ $X=133 $Y=72.675
Re237	avC7#153	avC7#59	0.312859	$met1
+ $X=133 $Y=59.875
Re238	avC7#155	avC7#61	0.312859	$met1
+ $X=133 $Y=47.075
Re239	avC7#157	avC7#63	0.312859	$met1
+ $X=133 $Y=34.275
Re240	avC198#58	avC198#59	1.204389	$met1
+ $X=137.7 $Y=180.987
Re241	avC198#58	avC198#57	2.716816	$met1
+ $X=137.7 $Y=171.7005
Re242	avC198#57	avC198#58	2.700000	$met1
+ $X=137.7 $Y=176.1
Re243	avC198#60	avC198#61	3.931816	$met1
+ $X=137.7 $Y=144.3
Re244	avC198#61	avC198#62	1.562013	$met1
+ $X=137.7 $Y=123.413
Re245	avC198#60	avC198#61	1.485000	$met1
+ $X=137.7 $Y=131.9
Re246	OUT#61	OUT#62	6.711115	$met1	$X=138.5 $Y=72.3
Re247	OUT#63	OUT#64	6.711115	$met1	$X=138.5 $Y=59.5
Re248	OUT#65	OUT#66	6.711115	$met1	$X=138.5 $Y=46.7
Re249	OUT#67	OUT#68	6.711115	$met1	$X=138.5 $Y=33.9
Re250	avC8#44	avC8#45	1.482541	$met1
+ $X=139 $Y=182.387
Re251	avC8#44	avC8#43	2.716816	$met1
+ $X=139 $Y=171.7005
Re252	avC8#43	avC8#44	2.700000	$met1	$X=139 $Y=176.1
Re253	avC9#45	avC9#46	3.931816	$met1	$X=139 $Y=144.3
Re254	avC9#46	avC9#47	1.840165	$met1
+ $X=139 $Y=122.013
Re255	avC9#45	avC9#46	1.485000	$met1	$X=139 $Y=131.9
Re256	GNDA#173	GNDA#175	29.828880	$met1
+ $X=139.15 $Y=79.425
Re257	GNDA#175	GNDA#176	1.371000	$met1
+ $X=138.5 $Y=80.2375
Re258	GNDA#174	GNDA#175	29.700001	$met1
+ $X=138.5 $Y=79.325
Re259	GNDA#177	GNDA#178	6.464721	$met1
+ $X=139.8 $Y=73.8
Re260	avC198#64	avC198#65	1.204389	$met1
+ $X=145 $Y=180.987
Re261	avC198#64	avC198#63	2.716816	$met1
+ $X=145 $Y=171.7005
Re262	avC198#63	avC198#64	2.700000	$met1	$X=145 $Y=176.1
Re263	avC198#66	avC198#67	3.931816	$met1	$X=145 $Y=144.3
Re264	avC198#67	avC198#68	1.562013	$met1
+ $X=145 $Y=123.413
Re265	avC198#66	avC198#67	1.485000	$met1	$X=145 $Y=131.9
Re266	avC9#49	avC9#50	1.760693	$met1
+ $X=146.3 $Y=183.787
Re267	avC9#49	avC9#48	2.716816	$met1
+ $X=146.3 $Y=171.7005
Re268	avC9#48	avC9#49	2.700000	$met1
+ $X=146.3 $Y=176.1
Re269	avC8#46	avC8#47	3.931816	$met1
+ $X=146.3 $Y=144.3
Re270	avC8#47	avC8#48	2.118317	$met1
+ $X=146.3 $Y=120.613
Re271	avC8#46	avC8#47	1.485000	$met1
+ $X=146.3 $Y=131.9
Re272	GNDA#179	GNDA#49	0.312859	$met1
+ $X=145.3 $Y=81.175
Re273	avC7#159	avC7#65	0.312859	$met1
+ $X=145.3 $Y=72.675
Re274	avC7#161	avC7#67	0.312859	$met1
+ $X=145.3 $Y=59.875
Re275	avC7#163	avC7#69	0.312859	$met1
+ $X=145.3 $Y=47.075
Re276	avC7#165	avC7#71	0.312859	$met1
+ $X=145.3 $Y=34.275
Re277	OUT#69	OUT#70	6.711115	$met1	$X=150.8 $Y=72.3
Re278	avC197#7	avC197#8	6.871588	$met1
+ $X=150.8 $Y=60.25
Re279	avC7#167	avC7#168	6.550643	$met1
+ $X=150.8 $Y=45.95
Re280	OUT#71	OUT#72	6.711115	$met1	$X=150.8 $Y=33.9
Re281	GNDA#181	GNDA#183	29.828880	$met1
+ $X=151.45 $Y=79.425
Re282	GNDA#183	GNDA#184	1.371000	$met1
+ $X=150.8 $Y=80.2375
Re283	GNDA#182	GNDA#183	29.700001	$met1
+ $X=150.8 $Y=79.325
Re284	avC198#70	avC198#71	1.204389	$met1
+ $X=152.3 $Y=180.987
Re285	avC198#70	avC198#69	2.716816	$met1
+ $X=152.3 $Y=171.7005
Re286	avC198#69	avC198#70	2.700000	$met1
+ $X=152.3 $Y=176.1
Re287	avC198#72	avC198#73	3.931816	$met1
+ $X=152.3 $Y=144.3
Re288	avC198#73	avC198#74	1.562013	$met1
+ $X=152.3 $Y=123.413
Re289	avC198#72	avC198#73	1.485000	$met1
+ $X=152.3 $Y=131.9
Re290	GNDA#185	GNDA#186	6.464721	$met1
+ $X=152.1 $Y=73.8
Re291	avC8#50	avC8#51	1.482541	$met1
+ $X=153.6 $Y=182.387
Re292	avC8#50	avC8#49	2.716816	$met1
+ $X=153.6 $Y=171.7005
Re293	avC8#49	avC8#50	2.700000	$met1
+ $X=153.6 $Y=176.1
Re294	avC9#51	avC9#52	3.931816	$met1
+ $X=153.6 $Y=144.3
Re295	avC9#52	avC9#53	1.840165	$met1
+ $X=153.6 $Y=122.013
Re296	avC9#51	avC9#52	1.485000	$met1
+ $X=153.6 $Y=131.9
Re297	avC198#76	avC198#77	1.204389	$met1
+ $X=159.6 $Y=180.987
Re298	avC198#76	avC198#75	2.716816	$met1
+ $X=159.6 $Y=171.7005
Re299	avC198#75	avC198#76	2.700000	$met1
+ $X=159.6 $Y=176.1
Re300	avC198#78	avC198#79	3.931816	$met1
+ $X=159.6 $Y=144.3
Re301	avC198#79	avC198#80	1.562013	$met1
+ $X=159.6 $Y=123.413
Re302	avC198#78	avC198#79	1.485000	$met1
+ $X=159.6 $Y=131.9
Re303	avC9#55	avC9#56	1.760693	$met1
+ $X=160.9 $Y=183.787
Re304	avC9#55	avC9#54	2.716816	$met1
+ $X=160.9 $Y=171.7005
Re305	avC9#54	avC9#55	2.700000	$met1
+ $X=160.9 $Y=176.1
Re306	avC8#52	avC8#53	3.931816	$met1
+ $X=160.9 $Y=144.3
Re307	avC8#53	avC8#54	2.118317	$met1
+ $X=160.9 $Y=120.613
Re308	avC8#52	avC8#53	1.485000	$met1
+ $X=160.9 $Y=131.9
Re309	GNDA#187	GNDA#53	0.312859	$met1
+ $X=157.6 $Y=81.175
Re310	avC7#169	avC7#73	0.312859	$met1
+ $X=157.6 $Y=72.675
Re311	avC7#171	avC7#75	0.312859	$met1
+ $X=157.6 $Y=59.875
Re312	avC7#173	avC7#77	0.312859	$met1
+ $X=157.6 $Y=47.075
Re313	avC7#175	avC7#79	0.312859	$met1
+ $X=157.6 $Y=34.275
Re314	OUT#73	OUT#74	6.711115	$met1	$X=163.1 $Y=72.3
Re315	OUT#75	OUT#76	6.711115	$met1	$X=163.1 $Y=59.5
Re316	OUT#77	OUT#78	6.711115	$met1	$X=163.1 $Y=46.7
Re317	OUT#79	OUT#80	6.711115	$met1	$X=163.1 $Y=33.9
Re318	GNDA#189	GNDA#191	29.828880	$met1
+ $X=163.75 $Y=79.425
Re319	GNDA#191	GNDA#192	1.371000	$met1
+ $X=163.1 $Y=80.2375
Re320	GNDA#190	GNDA#191	29.700001	$met1
+ $X=163.1 $Y=79.325
Re321	GNDA#193	GNDA#194	6.464721	$met1
+ $X=164.4 $Y=73.8
Re322	avC198#82	avC198#83	1.204389	$met1
+ $X=166.9 $Y=180.987
Re323	avC198#82	avC198#81	2.716816	$met1
+ $X=166.9 $Y=171.7005
Re324	avC198#81	avC198#82	2.700000	$met1
+ $X=166.9 $Y=176.1
Re325	avC198#84	avC198#85	3.931816	$met1
+ $X=166.9 $Y=144.3
Re326	avC198#85	avC198#86	1.562013	$met1
+ $X=166.9 $Y=123.413
Re327	avC198#84	avC198#85	1.485000	$met1
+ $X=166.9 $Y=131.9
Re328	GNDA#195	GNDA#196	0.314129	$met1
+ $X=166.9005 $Y=64.375
Re329	GNDA#196	GNDA#198	0.046359	$met1
+ $X=165 $Y=64.375
Re330	GNDA#198	GNDA#199	1.146695	$met1
+ $X=158.85 $Y=64.375
Re331	GNDA#199	GNDA#200	0.026077	$met1
+ $X=152.575 $Y=64.375
Re332	GNDA#200	GNDA#201	1.166977	$met1
+ $X=146.55 $Y=64.375
Re333	GNDA#201	GNDA#202	0.046531	$met1
+ $X=140.4 $Y=64.375
Re334	GNDA#202	GNDA#203	0.332564	$met1
+ $X=138.1125 $Y=64.375
Re335	GNDA#203	GNDA#204	0.805912	$met1
+ $X=132.3005 $Y=64.375
Re336	GNDA#204	GNDA#205	0.046531	$met1
+ $X=128.1 $Y=64.375
Re337	GNDA#205	GNDA#206	0.700122	$met1
+ $X=123.9625 $Y=64.375
Re338	GNDA#206	GNDA#207	0.438354	$met1
+ $X=118.1505 $Y=64.375
Re339	GNDA#207	GNDA#208	0.046531	$met1
+ $X=115.8 $Y=64.375
Re340	GNDA#208	GNDA#209	1.067680	$met1
+ $X=109.7975 $Y=64.375
Re341	GNDA#198	GNDA#210	5.844060	$met1	$X=164.4 $Y=61
Re342	GNDA#200	GNDA#211	5.827884	$met1	$X=152.1 $Y=61
Re343	GNDA#202	GNDA#212	5.821391	$met1	$X=139.8 $Y=61
Re344	GNDA#205	GNDA#213	5.821391	$met1	$X=127.5 $Y=61
Re345	GNDA#208	GNDA#214	5.821391	$met1	$X=115.2 $Y=61
Re346	GNDA#209	GNDA#215	0.069538	$met1
+ $X=104.0155 $Y=64.375
Re347	GNDA#215	GNDA#216	0.046531	$met1
+ $X=103.5 $Y=64.375
Re348	GNDA#216	GNDA#217	5.821391	$met1	$X=102.9 $Y=61
Re349	GNDA#216	GNDA#218	1.138476	$met1
+ $X=97.35 $Y=64.375
Re350	GNDA#218	GNDA#219	0.046531	$met1
+ $X=91.2 $Y=64.375
Re351	GNDA#219	GNDA#220	5.821391	$met1	$X=90.6 $Y=61
Re352	GNDA#219	GNDA#221	0.213356	$met1
+ $X=89.5125 $Y=64.375
Re353	GNDA#221	GNDA#222	0.925120	$met1
+ $X=83.7005 $Y=64.375
Re354	GNDA#222	GNDA#223	0.046531	$met1
+ $X=78.9 $Y=64.375
Re355	GNDA#223	GNDA#224	5.821391	$met1	$X=78.3 $Y=61
Re356	GNDA#223	GNDA#225	0.580914	$met1
+ $X=75.3625 $Y=64.375
Re357	GNDA#225	GNDA#226	0.557562	$met1
+ $X=69.5505 $Y=64.375
Re358	GNDA#226	GNDA#227	0.046531	$met1
+ $X=66.6 $Y=64.375
Re359	GNDA#227	GNDA#228	5.821391	$met1	$X=66 $Y=61
Re360	GNDA#227	GNDA#229	0.948472	$met1
+ $X=61.2125 $Y=64.375
Re361	GNDA#229	GNDA#230	0.190004	$met1
+ $X=55.4005 $Y=64.375
Re362	GNDA#230	GNDA#231	0.046531	$met1
+ $X=54.3 $Y=64.375
Re363	GNDA#231	GNDA#232	5.821391	$met1	$X=53.7 $Y=61
Re364	GNDA#231	GNDA#233	0.516343	$met1
+ $X=50.9125 $Y=64.375
Re365	GNDA#197	GNDA#198	5.940000	$met1
+ $X=164.4 $Y=64.375
Re366	GNDA#197	GNDA#200	2.970000	$met1
+ $X=152.4 $Y=64.375
Re367	GNDA#197	GNDA#203	2.970000	$met1
+ $X=136.4 $Y=64.375
Re368	GNDA#197	GNDA#206	2.970000	$met1
+ $X=120.4 $Y=64.375
Re369	GNDA#197	GNDA#209	2.970000	$met1
+ $X=104.4 $Y=64.375
Re370	GNDA#197	GNDA#221	2.970000	$met1
+ $X=88.4 $Y=64.375
Re371	GNDA#197	GNDA#225	2.970000	$met1
+ $X=72.4 $Y=64.375
Re372	GNDA#197	GNDA#229	2.970000	$met1
+ $X=56.4 $Y=64.375
Re373	GNDA#234	GNDA#235	0.314129	$met1
+ $X=166.9005 $Y=51.575
Re374	GNDA#235	GNDA#237	0.046359	$met1
+ $X=165 $Y=51.575
Re375	GNDA#237	GNDA#238	1.146695	$met1
+ $X=158.85 $Y=51.575
Re376	GNDA#238	GNDA#239	0.026077	$met1
+ $X=152.575 $Y=51.575
Re377	GNDA#239	GNDA#240	1.166977	$met1
+ $X=146.55 $Y=51.575
Re378	GNDA#240	GNDA#241	0.046531	$met1
+ $X=140.4 $Y=51.575
Re379	GNDA#241	GNDA#242	0.332564	$met1
+ $X=138.1125 $Y=51.575
Re380	GNDA#242	GNDA#243	0.805912	$met1
+ $X=132.3005 $Y=51.575
Re381	GNDA#243	GNDA#244	0.046531	$met1
+ $X=128.1 $Y=51.575
Re382	GNDA#244	GNDA#245	0.700122	$met1
+ $X=123.9625 $Y=51.575
Re383	GNDA#245	GNDA#246	0.438354	$met1
+ $X=118.1505 $Y=51.575
Re384	GNDA#246	GNDA#247	0.046531	$met1
+ $X=115.8 $Y=51.575
Re385	GNDA#247	GNDA#248	1.067680	$met1
+ $X=109.7975 $Y=51.575
Re386	GNDA#237	GNDA#249	5.844060	$met1
+ $X=164.4 $Y=48.2
Re387	GNDA#239	GNDA#250	5.827884	$met1
+ $X=152.1 $Y=48.2
Re388	GNDA#241	GNDA#251	5.821391	$met1
+ $X=139.8 $Y=48.2
Re389	GNDA#244	GNDA#252	5.821391	$met1
+ $X=127.5 $Y=48.2
Re390	GNDA#247	GNDA#253	5.821391	$met1
+ $X=115.2 $Y=48.2
Re391	GNDA#248	GNDA#254	0.069538	$met1
+ $X=104.0155 $Y=51.575
Re392	GNDA#254	GNDA#255	0.046531	$met1
+ $X=103.5 $Y=51.575
[...]
C3059	GNDA#197	OUT#17	8.73135e-18	$X=64.9365 $Y=68.573
C3060	OUT#150	GNDA#702	8.76761e-18	$X=24.977 $Y=42.443
C3061	OUT#137	GNDA#700	8.90021e-18	$X=24.9985 $Y=55.2495
C3062	OUT#101	GNDA#45	8.9047e-18	$X=146.903 $Y=82.4865
C3063	OUT#126	GNDA#697	9.12122e-18	$X=25.13 $Y=67.6625
C3064	OUT#116	GNDA#575	9.51709e-18	$X=194.534 $Y=66.1355
C3065	INP#15	INN#17	7.00312e-18	$X=123.2185 $Y=153.9205
C3066	INP#17	INN#19	7.00312e-18	$X=131.566 $Y=150.4815
C3067	INP#19	INN#21	7.00312e-18	$X=137.832 $Y=153.9165
C3068	INP#21	INN#23	7.00312e-18	$X=146.166 $Y=150.4815
C3069	INP#23	INN#25	7.00312e-18	$X=152.432 $Y=153.9165
C3070	INP#25	INN#27	7.00312e-18	$X=160.766 $Y=150.4815
C3071	INP#27	INN#29	7.00312e-18	$X=167.032 $Y=153.9165
C3072	INP#29	INN#31	7.00312e-18	$X=175.9275 $Y=150.317
C3073	INN#1	INP#3	7.00786e-18	$X=72.6125 $Y=150.4965
C3074	INN#3	INP#5	7.00786e-18	$X=80.044 $Y=153.9165
C3075	INN#5	INP#7	7.00786e-18	$X=87.154 $Y=150.4815
C3076	INN#7	INP#9	7.00786e-18	$X=94.644 $Y=153.9165
C3077	INN#9	INP#11	7.00786e-18	$X=101.754 $Y=150.481
C3078	INN#11	INP#13	7.00786e-18	$X=109.2285 $Y=153.9125
C3079	INN#15	INP#17	7.00786e-18	$X=123.6695 $Y=150.4855
C3080	INN#17	INP#19	7.00786e-18	$X=131.144 $Y=153.9165
C3081	INN#19	INP#21	7.00786e-18	$X=138.254 $Y=150.4815
C3082	INN#21	INP#23	7.00786e-18	$X=145.744 $Y=153.9165
C3083	INN#23	INP#25	7.00786e-18	$X=152.854 $Y=150.4815
C3084	INN#25	INP#27	7.00786e-18	$X=160.344 $Y=153.9165
C3085	INN#27	INP#29	7.00786e-18	$X=167.454 $Y=150.4815
C3086	INN#29	INP#31	7.00786e-18	$X=175.6015 $Y=154.087
C3087	avC197	BIAS#1	2.30745e-18	$X=29.873 $Y=128.1205
C3088	avC198#99	GNDA#710	8.6975e-18	$X=59.655 $Y=132.666
C3089	GNDA#634	avC198#9	8.78534e-18	$X=80.467 $Y=152.7745
C3090	GNDA#626	avC198#30	9.48926e-18	$X=101.303 $Y=151.589
C3091	avC198#3	GNDA#638	9.8352e-18	$X=72.405 $Y=152.817
C3092	avC8#42	INP#17	6.82646e-18	$X=129.433 $Y=136.4625
C3093	avC8#48	INP#21	6.82646e-18	$X=144.033 $Y=136.4625
C3094	avC8#54	INP#25	6.82646e-18	$X=158.633 $Y=136.4625
C3095	avC8#60	INP#29	6.82646e-18	$X=173.3365 $Y=136.803
C3096	INP#13	avC8#31	7.19434e-18	$X=111.7035 $Y=148.883
C3097	INP#5	avC8#19	7.22385e-18	$X=82.5365 $Y=148.8645
C3098	INP#27	avC8#52	7.31238e-18	$X=162.8365 $Y=148.8645
C3099	INP#31	avC8#58	7.3714e-18	$X=178.9685 $Y=148.013
C3100	INP#9	avC8#25	7.40091e-18	$X=97.1365 $Y=148.8645
C3101	INP#19	avC8#40	7.40091e-18	$X=133.6365 $Y=148.8645
C3102	INP#23	avC8#46	7.40091e-18	$X=148.2365 $Y=148.8645
C3103	INP#49	avC8#13	7.64556e-18	$X=60.571 $Y=148.8895
C3104	INP#15	avC8#34	7.64556e-18	$X=118.998 $Y=148.846
C3105	INN	GNDA	1.35627e-17	$X=63.1495 $Y=154.049
C3106	INP	GNDA	1.35627e-17	$X=63.1495 $Y=150.349
C3107	VDDA	GNDA	8.47847e-16	$X=222.451 $Y=73.7265
C3108	avC198	GNDA	8.00914e-18	$X=33.453 $Y=129.079
C3109	avC9	GNDA	2.01528e-18	$X=301.5985 $Y=119.1355
C3110	avC197	GNDA	7.90469e-18	$X=31.516 $Y=129.1615
C3111	avC10#3	GNDA	2.42955e-18	$X=233.84 $Y=118.0045
C3112	avC9#13	GNDA	2.01528e-18	$X=287.599 $Y=119.136
C3113	avC9#12	GNDA	3.54945e-18	$X=289.599 $Y=119.011
C3114	avC9#10	GNDA	3.13294e-18	$X=291.599 $Y=119.011
C3115	avC9#8	GNDA	3.13294e-18	$X=293.5985 $Y=119.011
C3116	avC9#7	GNDA	3.13294e-18	$X=295.5985 $Y=119.011
C3117	avC9#6	GNDA	3.13294e-18	$X=297.5985 $Y=119.011
C3118	avC9#5	GNDA	3.54945e-18	$X=299.5985 $Y=119.011
C3119	BIAS#3	GNDA	2.23981e-18	$X=27.1505 $Y=127.661
C3120	BIAS#1	GNDA	4.22383e-18	$X=29.1505 $Y=127.6605
C3121	BIAS#7	GNDA	4.23653e-18	$X=32.4505 $Y=127.661
C3122	BIAS#5	GNDA	2.10272e-18	$X=34.4505 $Y=127.6605
C3123	INN#2	GNDA	5.20389e-18	$X=69.0275 $Y=128.9695
C3124	INP#2	GNDA	5.33807e-18	$X=69.0275 $Y=175.3995
C3125	INP#4	GNDA	4.15508e-19	$X=76.324 $Y=128.508
C3126	INN#4	GNDA	4.15508e-19	$X=76.324 $Y=175.8635
C3127	INN#6	GNDA	4.15508e-19	$X=83.625 $Y=128.9695
C3128	INP#6	GNDA	4.15508e-19	$X=83.625 $Y=175.3995
C3129	INP#8	GNDA	4.15508e-19	$X=90.9215 $Y=128.508
C3130	INN#8	GNDA	4.15508e-19	$X=90.9215 $Y=175.8635
C3131	INN#10	GNDA	4.15508e-19	$X=98.222 $Y=128.9695
C3132	INP#10	GNDA	4.15508e-19	$X=98.222 $Y=175.3995
C3133	INP#12	GNDA	4.15508e-19	$X=105.519 $Y=128.508
C3134	INN#12	GNDA	4.15508e-19	$X=105.519 $Y=175.8635
C3135	INN#14	GNDA	2.07754e-19	$X=112.8195 $Y=128.9695
C3136	INP#14	GNDA	2.07754e-19	$X=112.8195 $Y=175.3995
C3137	INN#16	GNDA	2.07754e-19	$X=120.118 $Y=128.9695
C3138	INP#16	GNDA	2.07754e-19	$X=120.118 $Y=175.3995
C3139	INP#18	GNDA	4.15508e-19	$X=127.4155 $Y=128.508
C3140	INN#18	GNDA	4.15508e-19	$X=127.4155 $Y=175.8635
C3141	INN#20	GNDA	4.15508e-19	$X=134.7155 $Y=128.9695
C3142	INP#20	GNDA	4.15508e-19	$X=134.7155 $Y=175.3995
C3143	INP#22	GNDA	4.15508e-19	$X=142.013 $Y=128.508
C3144	INN#22	GNDA	4.15508e-19	$X=142.013 $Y=175.8635
C3145	INN#24	GNDA	4.15508e-19	$X=149.313 $Y=128.9695
C3146	INP#24	GNDA	4.15508e-19	$X=149.313 $Y=175.3995
C3147	INP#26	GNDA	4.15508e-19	$X=156.6105 $Y=128.508
C3148	INN#26	GNDA	4.15508e-19	$X=156.6105 $Y=175.8635
C3149	INN#28	GNDA	4.15508e-19	$X=163.91 $Y=128.9695
C3150	INP#28	GNDA	4.15508e-19	$X=163.91 $Y=175.3995
C3151	INP#30	GNDA	4.15508e-19	$X=171.208 $Y=128.508
C3152	INN#30	GNDA	4.15508e-19	$X=171.208 $Y=175.8635
C3153	INN#32	GNDA	5.21988e-18	$X=178.5075 $Y=128.9695
C3154	INP#32	GNDA	5.35405e-18	$X=178.5075 $Y=175.3995
C3155	avC197#22	GNDA	5.85861e-18	$X=23.9655 $Y=37.3525
C3156	avC197#17	GNDA	9.48406e-19	$X=21.8475 $Y=62.875
C3157	avC197#14	GNDA	5.9418e-18	$X=23.9675 $Y=75.9715
C3158	OUT#152	GNDA	4.21467e-17	$X=27.3875 $Y=24.06
C3159	OUT#115	GNDA	3.22442e-18	$X=20.1495 $Y=74.166
C3160	OUT#102	GNDA	2.65426e-17	$X=22.8325 $Y=87.851
C3161	avC7#186	GNDA	3.71193e-18	$X=27.931 $Y=123.8245
C3162	avC8#83	GNDA	7.21829e-18	$X=49.28 $Y=183.3185
C3163	avC198#99	GNDA	3.60714e-17	$X=55.653 $Y=129.7585
C3164	INP#50	GNDA	3.0328e-18	$X=63.1495 $Y=150.349
C3165	INN#50	GNDA	3.0328e-18	$X=63.1495 $Y=154.049
C3166	avC197#23	GNDA	1.09952e-18	$X=186.0185 $Y=25.41
C3167	avC197#21	GNDA	7.5862e-18	$X=186.018 $Y=37.353
C3168	avC197#18	GNDA	1.36662e-17	$X=189.062 $Y=50.0765
C3169	avC197#15	GNDA	1.31754e-17	$X=192.7505 $Y=62.875
C3170	avC197#13	GNDA	2.17627e-17	$X=186.0185 $Y=75.9715
C3171	avC8#75	GNDA	7.21829e-18	$X=194.61 $Y=184.9255
C3172	OUT#151	GNDA	1.09952e-18	$X=189.438 $Y=24.06
C3173	OUT#138	GNDA	1.04219e-18	$X=197.21 $Y=35.8505
C3174	OUT#127	GNDA	7.57445e-19	$X=197.21 $Y=48.5755
C3175	OUT#116	GNDA	1.09952e-18	$X=197.21 $Y=61.375
C3176	OUT#103	GNDA	1.10059e-17	$X=197.21 $Y=74.166
C3177	OUT#101	GNDA	1.88391e-17	$X=194.0325 $Y=88.0325
C3178	avC9#85	GNDA	1.59428e-17	$X=198.054 $Y=120.5235
C3179	avC9#74	GNDA	5.63117e-18	$X=198.2805 $Y=187.5995
C3180	avC7#244	GNDA	1.09952e-18	$X=192.8575 $Y=22.71
C3181	avC7#231	GNDA	1.09952e-18	$X=200.355 $Y=34.3505
C3182	avC7#203	GNDA	1.09952e-18	$X=200.355 $Y=59.875
C3183	avC7#190	GNDA	5.2563e-18	$X=200.355 $Y=72.931
C3184	avC7#188	GNDA	2.0468e-18	$X=197.6575 $Y=91.3575
C3185	avC9#102	GNDA	5.11262e-18	$X=212.891 $Y=147.339
C3186	avC9#97	GNDA	4.42196e-18	$X=213.2755 $Y=186.92
C3187	VDDA#109	GNDA	1.47083e-18	$X=215.799 $Y=143.5895
C3188	OUT#157	GNDA	7.48219e-19	$X=294.5965 $Y=111.1975
C3189	avC9#98	GNDA	1.17983e-17	$X=298.544 $Y=147.8515
C3190	avC9#94	GNDA	7.32714e-18	$X=298.1585 $Y=186.129
C3191	avC7#90	GNDA	5.2794e-18	$X=26.169 $Y=124.5865
C3192	BIAS#10	GNDA	4.67619e-18	$X=32.4285 $Y=134.648
C3193	avC197#2	GNDA	1.03234e-18	$X=28.2615 $Y=121.2585
C3194	avC198#2	GNDA	9.10352e-18	$X=33.212 $Y=117.9335
C3195	OUT#16	GNDA	5.36126e-18	$X=49.878 $Y=35.4185
C3196	OUT#14	GNDA	5.36126e-18	$X=49.878 $Y=48.218
C3197	OUT#12	GNDA	5.36126e-18	$X=49.878 $Y=61.018
C3198	OUT#10	GNDA	1.32195e-17	$X=49.878 $Y=73.8175
C3199	INP#49	GNDA	7.32924e-19	$X=59.943 $Y=150.348
C3200	INN#49	GNDA	7.32924e-19	$X=60.1305 $Y=154.0475
C3201	OUT#24	GNDA	5.49454e-18	$X=64.701 $Y=35.418
C3202	OUT#22	GNDA	9.21991e-18	$X=66.2395 $Y=48.218
C3203	OUT#20	GNDA	1.05101e-17	$X=66.2395 $Y=61.018
C3204	OUT#18	GNDA	8.57796e-18	$X=64.701 $Y=73.8175
C3205	avC8#15	GNDA	5.64073e-18	$X=65.8515 $Y=122.9955
C3206	avC198#8	GNDA	3.40351e-18	$X=71.3735 $Y=126.7295
C3207	avC9#20	GNDA	1.47328e-17	$X=72.859 $Y=124.8625
C3208	avC8#18	GNDA	7.21225e-18	$X=72.1545 $Y=184.761
C3209	OUT#28	GNDA	5.52e-18	$X=77.001 $Y=35.418
C3210	avC197#6	GNDA	1.97216e-18	$X=83.91 $Y=49.532
C3211	OUT#26	GNDA	1.09353e-17	$X=77.001 $Y=73.8175
C3212	avC198#14	GNDA	2.96911e-18	$X=79.306 $Y=126.73
C3213	avC8#21	GNDA	6.82646e-18	$X=80.6085 $Y=122.9955
C3214	avC198#20	GNDA	5.21963e-18	$X=86.6055 $Y=126.73
C3215	avC9#26	GNDA	7.46729e-18	$X=87.9075 $Y=124.8625
C3216	OUT#36	GNDA	5.4428e-18	$X=89.301 $Y=35.418
C3217	OUT#34	GNDA	5.4428e-18	$X=87.764 $Y=48.218
C3218	OUT#32	GNDA	5.4428e-18	$X=87.764 $Y=61.018
C3219	OUT#30	GNDA	8.57796e-18	$X=89.301 $Y=73.8175
C3220	avC198#26	GNDA	3.15871e-18	$X=93.905 $Y=126.73
C3221	avC8#27	GNDA	1.18696e-17	$X=95.2075 $Y=122.9955
C3222	avC198#32	GNDA	3.06213e-18	$X=101.205 $Y=126.73
C3223	OUT#44	GNDA	1.04931e-17	$X=101.6005 $Y=35.418
C3224	OUT#42	GNDA	1.04931e-17	$X=101.6005 $Y=48.218
C3225	OUT#40	GNDA	1.04931e-17	$X=101.6005 $Y=61.018
C3226	OUT#38	GNDA	8.91553e-18	$X=101.6005 $Y=73.8175
C3227	avC9#32	GNDA	7.46412e-18	$X=103.1155 $Y=124.862
C3228	avC198#38	GNDA	3.18192e-18	$X=108.5045 $Y=126.73
C3229	avC8#33	GNDA	6.82646e-18	$X=109.1975 $Y=122.996
C3230	OUT#52	GNDA	5.52917e-18	$X=113.9005 $Y=35.418
C3231	OUT#50	GNDA	5.52917e-18	$X=113.9005 $Y=48.218
C3232	OUT#48	GNDA	5.52917e-18	$X=113.9005 $Y=61.018
C3233	OUT#46	GNDA	1.09353e-17	$X=113.9005 $Y=73.8175
C3234	avC198#50	GNDA	5.21963e-18	$X=123.104 $Y=126.73
C3235	avC9#41	GNDA	7.46729e-18	$X=123.7975 $Y=124.862
C3236	OUT#60	GNDA	5.41126e-18	$X=126.2005 $Y=35.418
C3237	OUT#58	GNDA	5.41126e-18	$X=126.2005 $Y=48.218
C3238	OUT#56	GNDA	5.41126e-18	$X=126.2005 $Y=61.018
C3239	OUT#54	GNDA	1.08984e-17	$X=126.2005 $Y=73.8175
C3240	avC198#62	GNDA	4.28659e-18	$X=137.703 $Y=126.73
C3241	OUT#68	GNDA	5.28496e-18	$X=138.5005 $Y=35.418
C3242	OUT#66	GNDA	5.49577e-18	$X=140.038 $Y=48.218
C3243	OUT#64	GNDA	5.28496e-18	$X=140.038 $Y=61.018
C3244	OUT#62	GNDA	8.58358e-18	$X=138.5005 $Y=73.8175
C3245	avC9#47	GNDA	7.41405e-18	$X=139.0045 $Y=124.8625
C3246	avC198#68	GNDA	3.15787e-18	$X=145.003 $Y=126.73
C3247	avC8#48	GNDA	5.04315e-18	$X=146.3045 $Y=122.9955
C3248	OUT#72	GNDA	1.04931e-17	$X=150.8 $Y=35.418
C3249	avC197#8	GNDA	2.44589e-18	$X=139.256 $Y=62.331
C3250	OUT#70	GNDA	1.08984e-17	$X=150.8 $Y=73.8175
C3251	avC198#74	GNDA	5.19642e-18	$X=152.3025 $Y=126.73
C3252	avC9#53	GNDA	6.69442e-18	$X=153.6035 $Y=124.8625
C3253	avC198#80	GNDA	2.91661e-18	$X=159.602 $Y=126.73
C3254	OUT#80	GNDA	1.06052e-17	$X=163.1 $Y=35.418
C3255	OUT#78	GNDA	1.08154e-17	$X=161.563 $Y=48.218
C3256	OUT#76	GNDA	1.06052e-17	$X=161.563 $Y=61.018
C3257	OUT#74	GNDA	8.57796e-18	$X=163.1 $Y=73.8175
C3258	avC198#86	GNDA	5.41532e-18	$X=166.902 $Y=126.73
C3259	avC9#59	GNDA	1.32558e-17	$X=169.47 $Y=124.862
C3260	avC198#92	GNDA	3.13551e-18	$X=174.2015 $Y=126.73
C3261	OUT#82	GNDA	8.61492e-18	$X=176.55 $Y=73.8175
C3262	avC8#60	GNDA	5.78977e-19	$X=175.844 $Y=122.9955
C3263	avC198#98	GNDA	8.53768e-18	$X=181.6345 $Y=126.7295
C3264	avC198#95	GNDA	3.89501e-18	$X=181.7 $Y=182.313
C3265	VDDA#83	GNDA	5.63117e-18	$X=208.9305 $Y=185.8915
C3266	OUT#92	GNDA	9.97945e-18	$X=215.3245 $Y=103.033
C3267	VDDA#13	GNDA	8.84677e-19	$X=230.2995 $Y=149.786
C3268	avC9#64	GNDA	2.81029e-18	$X=243.0325 $Y=147.248
C3269	avC9#66	GNDA	1.40514e-18	$X=251.192 $Y=186.74
C3270	avC9#69	GNDA	1.40514e-18	$X=269.529 $Y=186.741
C3271	avC9#71	GNDA	8.91866e-18	$X=281.351 $Y=147.2505
C3272	OUT#94	GNDA	7.48219e-19	$X=288.2105 $Y=111.911
C3273	avC9#73	GNDA	3.9062e-18	$X=294.5965 $Y=126.1475
C3274	OUT#100	GNDA	4.25189e-20	$X=300.9855 $Y=111.911
C3275	BIAS#4	GNDA	5.23752e-18	$X=27.9735 $Y=134.613
C3276	BIAS#8	GNDA	1.98706e-19	$X=33.4505 $Y=134.6095
C3277	avC7#23	GNDA	4.42036e-18	$X=71.5285 $Y=33.5065
C3278	INP#1	GNDA	2.27445e-17	$X=68.7175 $Y=152.747
C3279	INN#1	GNDA	1.57367e-17	$X=69.655 $Y=151.643
C3280	INP#3	GNDA	1.40512e-17	$X=76.214 $Y=149.098
C3281	INN#3	GNDA	7.22475e-18	$X=76.4015 $Y=155.2895
C3282	INP#5	GNDA	1.15202e-17	$X=83.1375 $Y=152.747
C3283	INN#5	GNDA	1.15202e-17	$X=84.075 $Y=151.6425
C3284	INP#7	GNDA	1.40171e-17	$X=90.8135 $Y=149.098
C3285	INN#7	GNDA	7.19065e-18	$X=91.001 $Y=155.29
C3286	INP#9	GNDA	1.15202e-17	$X=97.7365 $Y=152.747
C3287	INN#9	GNDA	1.15202e-17	$X=98.674 $Y=151.642
C3288	INP#11	GNDA	1.41365e-17	$X=105.4125 $Y=149.098
C3289	INN#11	GNDA	7.30999e-18	$X=105.6 $Y=155.2895
C3290	INN#13	GNDA	7.01958e-18	$X=113.3205 $Y=151.642
C3291	INP#15	GNDA	4.53356e-18	$X=119.5885 $Y=152.747
C3292	INN#15	GNDA	4.5171e-18	$X=120.62 $Y=151.6425
C3293	INP#17	GNDA	1.87534e-19	$X=127.311 $Y=149.098
C3294	INN#17	GNDA	1.87534e-19	$X=127.4985 $Y=155.2895
C3295	INP#19	GNDA	4.5171e-18	$X=134.235 $Y=152.747
C3296	INN#19	GNDA	4.5171e-18	$X=135.1725 $Y=151.6425
C3297	INP#21	GNDA	1.53437e-19	$X=141.91 $Y=149.098
C3298	INN#21	GNDA	1.53437e-19	$X=142.0975 $Y=155.2895
C3299	INP#23	GNDA	4.5171e-18	$X=148.834 $Y=152.747
C3300	INN#23	GNDA	4.5171e-18	$X=149.7715 $Y=151.6425
C3301	INP#25	GNDA	2.3868e-19	$X=156.5095 $Y=149.098
C3302	INN#25	GNDA	2.3868e-19	$X=156.697 $Y=155.2895
C3303	INP#27	GNDA	4.5171e-18	$X=163.4335 $Y=152.747
C3304	INN#27	GNDA	4.5171e-18	$X=164.371 $Y=151.6425
C3305	INP#29	GNDA	2.04582e-19	$X=171.1085 $Y=149.098
C3306	INN#29	GNDA	2.04582e-19	$X=171.296 $Y=155.2895
C3307	INP#31	GNDA	5.4546e-18	$X=180.3675 $Y=152.746
C3308	INN#31	GNDA	5.4546e-18	$X=181.211 $Y=151.6415
C3309	OUT#1	GNDA	3.2328e-18	$X=215.3 $Y=108.4845
C3310	OUT#7	GNDA	1.47083e-18	$X=215.2995 $Y=134.0435
C3311	VDDA#8	GNDA	1.18316e-17	$X=286.661 $Y=150.3995
C3312	avC9#4	GNDA	8.08604e-19	$X=294.596 $Y=125.2415
C3313	VDDA#136	GNDA	5.62951e-15	$X=34.157 $Y=162.477
C3314	VDDA#133	GNDA	1.50739e-17	$X=253.882 $Y=82.6665
C3315	VDDA#9	GNDA	7.32714e-18	$X=219.331 $Y=158.3145
C3316	VDDA#30	GNDA	7.32603e-18	$X=219.331 $Y=175.6795
C3317	VDDA#16	GNDA	6.86013e-19	$X=230.267 $Y=158.305
C3318	VDDA#29	GNDA	6.86013e-19	$X=230.267 $Y=175.68
C3319	VDDA#15	GNDA	7.19131e-19	$X=231.6305 $Y=158.305
C3320	VDDA#28	GNDA	7.19131e-19	$X=231.6305 $Y=175.679
C3321	VDDA#18	GNDA	7.19131e-19	$X=243.9295 $Y=158.307
C3322	VDDA#27	GNDA	6.86013e-19	$X=243.9295 $Y=175.6795
C3323	VDDA#41	GNDA	6.86013e-19	$X=256.229 $Y=158.305
C3324	VDDA#33	GNDA	7.19131e-19	$X=256.229 $Y=175.6785
C3325	VDDA#40	GNDA	6.86013e-19	$X=268.5285 $Y=158.305
C3326	VDDA#55	GNDA	7.19131e-19	$X=268.5285 $Y=175.6795
C3327	avC9#70	GNDA	7.36037e-18	$X=279.464 $Y=158.2755
C3328	VDDA#42	GNDA	6.86013e-19	$X=280.8275 $Y=158.314
C3329	VDDA#56	GNDA	6.86013e-19	$X=280.8275 $Y=175.679
C3330	VDDA#44	GNDA	2.7312e-18	$X=286.662 $Y=120.5945
C3331	OUT#93	GNDA	1.97077e-18	$X=288.5975 $Y=120.504
C3332	VDDA#46	GNDA	3.98605e-18	$X=290.5975 $Y=120.5995
C3333	VDDA#57	GNDA	7.32714e-18	$X=291.7635 $Y=158.3045
C3334	VDDA#48	GNDA	7.32714e-18	$X=291.764 $Y=175.68
C3335	OUT#95	GNDA	3.53724e-18	$X=292.5975 $Y=120.504
C3336	VDDA#60	GNDA	4.68976e-18	$X=294.5975 $Y=120.599
C3337	OUT#97	GNDA	3.53724e-18	$X=296.597 $Y=120.504
C3338	VDDA#62	GNDA	3.98605e-18	$X=298.597 $Y=120.599
C3339	OUT#99	GNDA	1.97077e-18	$X=300.597 $Y=120.504
C3340	VDDA#64	GNDA	2.0255e-18	$X=302.534 $Y=120.595
C3341	avC7#89	GNDA	2.08047e-18	$X=26.216 $Y=129.267
C3342	BIAS#12	GNDA	4.50122e-18	$X=28.153 $Y=129.334
C3343	avC7#91	GNDA	5.1191e-18	$X=30.088 $Y=129.267
C3344	avC197#3	GNDA	5.75149e-18	$X=35.3885 $Y=129.1615
C3345	OUT#15	GNDA	1.75673e-19	$X=52.3375 $Y=30.203
C3346	OUT#13	GNDA	5.08101e-19	$X=52.3375 $Y=43.0025
C3347	OUT#11	GNDA	5.08101e-19	$X=52.3375 $Y=55.8025
C3348	OUT#9	GNDA	5.08101e-19	$X=52.3375 $Y=68.6025
C3349	OUT#23	GNDA	2.70801e-18	$X=64.637 $Y=30.203
C3350	OUT#21	GNDA	2.83267e-18	$X=64.637 $Y=43.0025
C3351	OUT#19	GNDA	2.83267e-18	$X=64.637 $Y=55.8025
C3352	OUT#17	GNDA	3.00334e-19	$X=64.637 $Y=68.6025
C3353	avC9#15	GNDA	1.1669e-17	$X=66.047 $Y=168.227
C3354	avC198#6	GNDA	6.63272e-18	$X=72.0065 $Y=136.2845
C3355	avC9#18	GNDA	5.41627e-18	$X=73.3415 $Y=136.2845
C3356	avC8#16	GNDA	1.29368e-17	$X=73.345 $Y=168.207
C3357	OUT#27	GNDA	5.25396e-18	$X=76.937 $Y=30.203
C3358	avC197#5	GNDA	4.97883e-18	$X=76.937 $Y=43.0445
C3359	OUT#25	GNDA	3.41887e-19	$X=76.937 $Y=68.6025
C3360	avC198#12	GNDA	5.92348e-18	$X=79.3055 $Y=136.2845
C3361	avC8#19	GNDA	8.77022e-18	$X=80.64 $Y=136.2845
C3362	avC9#24	GNDA	3.94409e-18	$X=87.939 $Y=136.285
C3363	avC8#22	GNDA	1.05542e-17	$X=87.942 $Y=168.207
C3364	OUT#35	GNDA	1.59927e-19	$X=89.237 $Y=30.203
C3365	OUT#33	GNDA	6.15697e-18	$X=89.237 $Y=43.0025
C3366	OUT#31	GNDA	6.15697e-18	$X=89.237 $Y=55.8025
C3367	OUT#29	GNDA	6.17271e-18	$X=89.237 $Y=68.6025
C3368	avC198#24	GNDA	3.75655e-18	$X=93.903 $Y=136.2845
C3369	avC198#21	GNDA	6.70674e-18	$X=93.9055 $Y=168.1875
C3370	OUT#43	GNDA	1.33684e-19	$X=101.5365 $Y=30.203
C3371	OUT#41	GNDA	5.00637e-18	$X=101.5365 $Y=43.0025
C3372	OUT#39	GNDA	5.00637e-18	$X=101.5365 $Y=55.8025
C3373	OUT#37	GNDA	5.04836e-18	$X=101.5365 $Y=68.6025
C3374	avC9#30	GNDA	6.22839e-18	$X=102.5365 $Y=136.2845
C3375	avC8#28	GNDA	1.37459e-17	$X=102.5395 $Y=168.206
C3376	avC198#36	GNDA	4.47559e-18	$X=108.5005 $Y=136.2845
C3377	avC198#33	GNDA	7.4524e-18	$X=108.503 $Y=168.1885
C3378	avC8#31	GNDA	7.35176e-18	$X=109.835 $Y=136.2845
C3379	OUT#51	GNDA	1.59927e-19	$X=113.8365 $Y=30.203
C3380	OUT#49	GNDA	3.67695e-19	$X=113.8365 $Y=43.0025
C3381	OUT#47	GNDA	3.67695e-19	$X=113.8365 $Y=55.8025
C3382	OUT#45	GNDA	3.83441e-19	$X=113.8365 $Y=68.6025
C3383	avC198#42	GNDA	1.57324e-18	$X=115.7995 $Y=136.284
C3384	avC198#39	GNDA	1.57524e-18	$X=115.8015 $Y=168.188
C3385	avC9#36	GNDA	1.57324e-18	$X=117.1365 $Y=168.226
C3386	avC9#39	GNDA	3.94409e-18	$X=124.433 $Y=136.2845
C3387	avC8#37	GNDA	1.05542e-17	$X=124.435 $Y=168.2065
C3388	OUT#59	GNDA	5.91574e-18	$X=126.1365 $Y=30.203
C3389	OUT#57	GNDA	6.08195e-18	$X=126.1365 $Y=43.0025
C3390	OUT#55	GNDA	6.08195e-18	$X=126.1365 $Y=55.8025
C3391	OUT#53	GNDA	3.41887e-19	$X=126.1365 $Y=68.6025
C3392	avC198#54	GNDA	3.75655e-18	$X=130.397 $Y=136.2845
C3393	OUT#67	GNDA	2.70801e-18	$X=138.4365 $Y=30.203
C3394	OUT#65	GNDA	2.83267e-18	$X=138.4365 $Y=43.0025
C3395	OUT#63	GNDA	2.83267e-18	$X=138.4365 $Y=55.8025
C3396	OUT#61	GNDA	3.00334e-19	$X=138.4365 $Y=68.6025
C3397	avC9#45	GNDA	2.47191e-18	$X=139.0305 $Y=136.2845
C3398	avC8#43	GNDA	9.88596e-18	$X=139.032 $Y=168.207
C3399	avC198#66	GNDA	5.19464e-18	$X=144.9945 $Y=136.285
C3400	avC198#63	GNDA	8.19806e-18	$X=144.9965 $Y=168.1875
C3401	OUT#71	GNDA	1.75673e-19	$X=150.736 $Y=30.203
C3402	avC197#7	GNDA	4.21088e-19	$X=150.736 $Y=55.8445
C3403	OUT#69	GNDA	8.83416e-19	$X=150.736 $Y=68.6025
C3404	avC9#51	GNDA	6.15236e-18	$X=153.628 $Y=136.284
C3405	avC8#49	GNDA	1.28557e-17	$X=153.629 $Y=168.2065
C3406	avC198#78	GNDA	1.42744e-18	$X=159.592 $Y=136.2845
C3407	avC198#75	GNDA	4.10018e-18	$X=159.5935 $Y=168.189
C3408	OUT#79	GNDA	2.72159e-18	$X=163.036 $Y=30.203
C3409	OUT#77	GNDA	2.84625e-18	$X=163.036 $Y=43.0025
C3410	OUT#75	GNDA	2.84625e-18	$X=163.036 $Y=55.8025
C3411	OUT#73	GNDA	3.00334e-19	$X=163.036 $Y=68.6025
C3412	avC9#57	GNDA	4.68018e-18	$X=168.2255 $Y=136.284
C3413	avC8#55	GNDA	1.2208e-17	$X=168.2265 $Y=168.207
C3414	avC198#90	GNDA	3.03751e-18	$X=174.1895 $Y=136.285
C3415	avC198#87	GNDA	5.96108e-18	$X=174.191 $Y=168.1885
C3416	OUT#87	GNDA	1.75673e-19	$X=175.336 $Y=30.203
C3417	OUT#85	GNDA	5.41632e-18	$X=175.336 $Y=43.0025
C3418	OUT#83	GNDA	5.41632e-18	$X=175.336 $Y=55.8025
C3419	OUT#81	GNDA	5.41632e-18	$X=175.336 $Y=68.6025
C3420	avC198#96	GNDA	2.31847e-18	$X=181.4885 $Y=136.284
C3421	avC198#93	GNDA	1.08595e-17	$X=181.49 $Y=168.1875
C3422	VDDA#21	GNDA	1.18355e-18	$X=236.898 $Y=184.548
C3423	VDDA#34	GNDA	8.23265e-18	$X=273.998 $Y=149.4485
C3424	VDDA#106	GNDA	3.9062e-18	$X=308.699 $Y=128.624
C3425	VDDA#97	GNDA	1.13106e-17	$X=285.02 $Y=104.877
C3426	BIAS#2	GNDA	9.14803e-19	$X=28.151 $Y=131.6325
C3427	BIAS#6	GNDA	5.7184e-19	$X=33.451 $Y=131.6325
C3428	avC9#2	GNDA	4.04302e-19	$X=300.5985 $Y=122.9745
C3429	avC9#3	GNDA	8.08604e-19	$X=297.599 $Y=123
C3430	avC9#9	GNDA	8.08604e-19	$X=291.599 $Y=123
C3431	avC9#11	GNDA	4.04302e-19	$X=288.599 $Y=122.975
C3432	avC9#100	GNDA	6.86013e-19	$X=276.8905 $Y=146.6465
C3433	avC9#109	GNDA	8.59195e-18	$X=212 $Y=169.1935
C3434	OUT#166	GNDA	2.42651e-18	$X=237.416 $Y=99.3455
*
*
.ENDS opamp_ws_f
*
